637511
     RDKit          2D

 18 18  0  0  0  0  0  0  0  0999 V2000
    4.5981    2.5000    0.0000 O   0  0  0  0  0  0  0  0  0  0  0  0
    2.8660   -0.5000    0.0000 C   0  0  0  0  0  0  0  0  0  0  0  0
    2.0000   -1.0000    0.0000 C   0  0  0  0  0  0  0  0  0  0  0  0
    3.7321   -1.0000    0.0000 C   0  0  0  0  0  0  0  0  0  0  0  0
    2.0000   -2.0000    0.0000 C   0  0  0  0  0  0  0  0  0  0  0  0
    3.7321   -2.0000    0.0000 C   0  0  0  0  0  0  0  0  0  0  0  0
    2.8660    0.5000    0.0000 C   0  0  0  0  0  0  0  0  0  0  0  0
    2.8660   -2.5000    0.0000 C   0  0  0  0  0  0  0  0  0  0  0  0
    3.7321    1.0000    0.0000 C   0  0  0  0  0  0  0  0  0  0  0  0
    3.7321    2.0000    0.0000 C   0  0  0  0  0  0  0  0  0  0  0  0
    1.4631   -0.6900    0.0000 H   0  0  0  0  0  0  0  0  0  0  0  0
    4.2690   -0.6900    0.0000 H   0  0  0  0  0  0  0  0  0  0  0  0
    2.3291    0.8100    0.0000 H   0  0  0  0  0  0  0  0  0  0  0  0
    1.4631   -2.3100    0.0000 H   0  0  0  0  0  0  0  0  0  0  0  0
    4.2690   -2.3100    0.0000 H   0  0  0  0  0  0  0  0  0  0  0  0
    2.8660   -3.1200    0.0000 H   0  0  0  0  0  0  0  0  0  0  0  0
    4.2690    0.6900    0.0000 H   0  0  0  0  0  0  0  0  0  0  0  0
    3.1951    2.3100    0.0000 H   0  0  0  0  0  0  0  0  0  0  0  0
  1 10  2  0
  2  3  2  0
  2  4  1  0
  2  7  1  0
  3  5  1  0
  3 11  1  0
  4  6  2  0
  4 12  1  0
  5  8  2  0
  5 14  1  0
  6  8  1  0
  6 15  1  0
  7  9  2  0
  7 13  1  0
  8 16  1  0
  9 10  1  0
  9 17  1  0
 10 18  1  0
M  END
>  <PUBCHEM_COMPOUND_CID>  (1) 
637511

>  <PUBCHEM_COMPOUND_CANONICALIZED>  (1) 
1

>  <PUBCHEM_CACTVS_COMPLEXITY>  (1) 
121

>  <PUBCHEM_CACTVS_HBOND_ACCEPTOR>  (1) 
1

>  <PUBCHEM_CACTVS_HBOND_DONOR>  (1) 
0

>  <PUBCHEM_CACTVS_ROTATABLE_BOND>  (1) 
2

>  <PUBCHEM_CACTVS_SUBSKEYS>  (1) 
AAADccBwIAAAAAAAAAAAAAAAAAAAAAAAAAAwAAAAAAAAAAABAAAAGgAAAAAADACgmAIwAIAAAACIAihSgAACAAAgAAAIiAAAAMgIICKAERCAIAAggAAIiYcAgAAOAAAAAAAAAAAAAAAAAAAAAAAAAAAAAA==

>  <PUBCHEM_IUPAC_OPENEYE_NAME>  (1) 
(E)-3-phenylprop-2-enal

>  <PUBCHEM_IUPAC_CAS_NAME>  (1) 
(E)-3-phenyl-2-propenal

>  <PUBCHEM_IUPAC_NAME_MARKUP>  (1) 
(<I>E</I>)-3-phenylprop-2-enal

>  <PUBCHEM_IUPAC_NAME>  (1) 
(E)-3-phenylprop-2-enal

>  <PUBCHEM_IUPAC_SYSTEMATIC_NAME>  (1) 
(E)-3-phenylprop-2-enal

>  <PUBCHEM_IUPAC_TRADITIONAL_NAME>  (1) 
(E)-3-phenylacrolein

>  <PUBCHEM_IUPAC_INCHI>  (1) 
InChI=1S/C9H8O/c10-8-4-7-9-5-2-1-3-6-9/h1-8H/b7-4+

>  <PUBCHEM_IUPAC_INCHIKEY>  (1) 
KJPRLNWUNMBNBZ-QPJJXVBHSA-N

>  <PUBCHEM_XLOGP3>  (1) 
1.9

>  <PUBCHEM_EXACT_MASS>  (1) 
132.057514874

>  <PUBCHEM_MOLECULAR_FORMULA>  (1) 
C9H8O

>  <PUBCHEM_MOLECULAR_WEIGHT>  (1) 
132.16

>  <PUBCHEM_SMILES>  (1) 
C1=CC=C(C=C1)/C=C/C=O

>  <PUBCHEM_CONNECTIVITY_SMILES>  (1) 
C1=CC=C(C=C1)C=CC=O

>  <PUBCHEM_CACTVS_TPSA>  (1) 
17.1

>  <PUBCHEM_MONOISOTOPIC_WEIGHT>  (1) 
132.057514874

>  <PUBCHEM_TOTAL_CHARGE>  (1) 
0

>  <PUBCHEM_HEAVY_ATOM_COUNT>  (1) 
10

>  <PUBCHEM_ATOM_DEF_STEREO_COUNT>  (1) 
0

>  <PUBCHEM_ATOM_UDEF_STEREO_COUNT>  (1) 
0

>  <PUBCHEM_BOND_DEF_STEREO_COUNT>  (1) 
1

>  <PUBCHEM_BOND_UDEF_STEREO_COUNT>  (1) 
0

>  <PUBCHEM_ISOTOPIC_ATOM_COUNT>  (1) 
0

>  <PUBCHEM_COMPONENT_COUNT>  (1) 
1

>  <PUBCHEM_CACTVS_TAUTO_COUNT>  (1) 
-1

>  <PUBCHEM_COORDINATE_TYPE>  (1) 
1
5
255

>  <PUBCHEM_BONDANNOTATIONS>  (1) 
2  3  8
2  4  8
3  5  8
4  6  8
5  8  8
6  8  8

$$$$
