5281708
     RDKit          2D

 29 31  0  0  0  0  0  0  0  0999 V2000
    6.0683   -1.7327    0.0000 O   0  0  0  0  0  0  0  0  0  0  0  0
    6.0683    1.2673    0.0000 O   0  0  0  0  0  0  0  0  0  0  0  0
    2.5381   -1.7568    0.0000 O   0  0  0  0  0  0  0  0  0  0  0  0
   10.3984    1.7673    0.0000 O   0  0  0  0  0  0  0  0  0  0  0  0
    5.2022   -0.2327    0.0000 C   0  0  0  0  0  0  0  0  0  0  0  0
    6.9343   -0.2327    0.0000 C   0  0  0  0  0  0  0  0  0  0  0  0
    5.2022   -1.2327    0.0000 C   0  0  0  0  0  0  0  0  0  0  0  0
    6.0683    0.2673    0.0000 C   0  0  0  0  0  0  0  0  0  0  0  0
    7.8003    0.2673    0.0000 C   0  0  0  0  0  0  0  0  0  0  0  0
    6.9343   -1.2327    0.0000 C   0  0  0  0  0  0  0  0  0  0  0  0
    4.3083    0.3020    0.0000 C   0  0  0  0  0  0  0  0  0  0  0  0
    4.3083   -1.7673    0.0000 C   0  0  0  0  0  0  0  0  0  0  0  0
    8.6663   -0.2327    0.0000 C   0  0  0  0  0  0  0  0  0  0  0  0
    7.8003    1.2673    0.0000 C   0  0  0  0  0  0  0  0  0  0  0  0
    3.4022   -1.2535    0.0000 C   0  0  0  0  0  0  0  0  0  0  0  0
    3.4022   -0.2119    0.0000 C   0  0  0  0  0  0  0  0  0  0  0  0
    9.5324    0.2673    0.0000 C   0  0  0  0  0  0  0  0  0  0  0  0
    8.6663    1.7673    0.0000 C   0  0  0  0  0  0  0  0  0  0  0  0
    9.5324    1.2673    0.0000 C   0  0  0  0  0  0  0  0  0  0  0  0
    7.4712   -1.5427    0.0000 H   0  0  0  0  0  0  0  0  0  0  0  0
    4.3155    0.9220    0.0000 H   0  0  0  0  0  0  0  0  0  0  0  0
    4.3155   -2.3873    0.0000 H   0  0  0  0  0  0  0  0  0  0  0  0
    8.6663   -0.8527    0.0000 H   0  0  0  0  0  0  0  0  0  0  0  0
    7.2634    1.5773    0.0000 H   0  0  0  0  0  0  0  0  0  0  0  0
    2.8665    0.1002    0.0000 H   0  0  0  0  0  0  0  0  0  0  0  0
   10.0693   -0.0427    0.0000 H   0  0  0  0  0  0  0  0  0  0  0  0
    8.6663    2.3873    0.0000 H   0  0  0  0  0  0  0  0  0  0  0  0
    2.0000   -1.4489    0.0000 H   0  0  0  0  0  0  0  0  0  0  0  0
   10.9353    1.4573    0.0000 H   0  0  0  0  0  0  0  0  0  0  0  0
  1  7  1  0
  1 10  1  0
  2  8  2  0
  3 15  1  0
  3 28  1  0
  4 19  1  0
  4 29  1  0
  5  7  1  0
  5  8  1  0
  5 11  2  0
  6  8  1  0
  6  9  1  0
  6 10  2  0
  7 12  2  0
  9 13  1  0
  9 14  2  0
 10 20  1  0
 11 16  1  0
 11 21  1  0
 12 15  1  0
 12 22  1  0
 13 17  2  0
 13 23  1  0
 14 18  1  0
 14 24  1  0
 15 16  2  0
 16 25  1  0
 17 19  1  0
 17 26  1  0
 18 19  2  0
 18 27  1  0
M  END
>  <PUBCHEM_COMPOUND_CID>  (1) 
5281708

>  <PUBCHEM_COMPOUND_CANONICALIZED>  (1) 
1

>  <PUBCHEM_CACTVS_COMPLEXITY>  (1) 
382

>  <PUBCHEM_CACTVS_HBOND_ACCEPTOR>  (1) 
4

>  <PUBCHEM_CACTVS_HBOND_DONOR>  (1) 
2

>  <PUBCHEM_CACTVS_ROTATABLE_BOND>  (1) 
1

>  <PUBCHEM_CACTVS_SUBSKEYS>  (1) 
AAADccBwOAAAAAAAAAAAAAAAAAAAAAAAAAAwYIAAAAAAAACBQAAAGgAACAAADASgmAIwBoAABgCIAqBSAAACCAAkIAAIiAEGCMgMJzaGNRqAcWAl4BUIuYeI7PzOIAAACAAIAABAAAAQABAAAAAAAAAAAA==

>  <PUBCHEM_IUPAC_OPENEYE_NAME>  (1) 
7-hydroxy-3-(4-hydroxyphenyl)chromen-4-one

>  <PUBCHEM_IUPAC_CAS_NAME>  (1) 
7-hydroxy-3-(4-hydroxyphenyl)-1-benzopyran-4-one

>  <PUBCHEM_IUPAC_NAME_MARKUP>  (1) 
7-hydroxy-3-(4-hydroxyphenyl)chromen-4-one

>  <PUBCHEM_IUPAC_NAME>  (1) 
7-hydroxy-3-(4-hydroxyphenyl)chromen-4-one

>  <PUBCHEM_IUPAC_SYSTEMATIC_NAME>  (1) 
3-(4-hydroxyphenyl)-7-oxidanyl-chromen-4-one

>  <PUBCHEM_IUPAC_TRADITIONAL_NAME>  (1) 
7-hydroxy-3-(4-hydroxyphenyl)chromone

>  <PUBCHEM_IUPAC_INCHI>  (1) 
InChI=1S/C15H10O4/c16-10-3-1-9(2-4-10)13-8-19-14-7-11(17)5-6-12(14)15(13)18/h1-8,16-17H

>  <PUBCHEM_IUPAC_INCHIKEY>  (1) 
ZQSIJRDFPHDXIC-UHFFFAOYSA-N

>  <PUBCHEM_XLOGP3_AA>  (1) 
2.5

>  <PUBCHEM_EXACT_MASS>  (1) 
254.05790880

>  <PUBCHEM_MOLECULAR_FORMULA>  (1) 
C15H10O4

>  <PUBCHEM_MOLECULAR_WEIGHT>  (1) 
254.24

>  <PUBCHEM_SMILES>  (1) 
C1=CC(=CC=C1C2=COC3=C(C2=O)C=CC(=C3)O)O

>  <PUBCHEM_CONNECTIVITY_SMILES>  (1) 
C1=CC(=CC=C1C2=COC3=C(C2=O)C=CC(=C3)O)O

>  <PUBCHEM_CACTVS_TPSA>  (1) 
66.8

>  <PUBCHEM_MONOISOTOPIC_WEIGHT>  (1) 
254.05790880

>  <PUBCHEM_TOTAL_CHARGE>  (1) 
0

>  <PUBCHEM_HEAVY_ATOM_COUNT>  (1) 
19

>  <PUBCHEM_ATOM_DEF_STEREO_COUNT>  (1) 
0

>  <PUBCHEM_ATOM_UDEF_STEREO_COUNT>  (1) 
0

>  <PUBCHEM_BOND_DEF_STEREO_COUNT>  (1) 
0

>  <PUBCHEM_BOND_UDEF_STEREO_COUNT>  (1) 
0

>  <PUBCHEM_ISOTOPIC_ATOM_COUNT>  (1) 
0

>  <PUBCHEM_COMPONENT_COUNT>  (1) 
1

>  <PUBCHEM_CACTVS_TAUTO_COUNT>  (1) 
-1

>  <PUBCHEM_COORDINATE_TYPE>  (1) 
1
5
255

>  <PUBCHEM_BONDANNOTATIONS>  (1) 
1  10  8
1  7  8
11  16  8
12  15  8
13  17  8
14  18  8
15  16  8
17  19  8
18  19  8
5  11  8
5  7  8
5  8  8
6  10  8
6  8  8
7  12  8
9  13  8
9  14  8

$$$$
