3100
  -OEChem-08112611012D

 40 41  0     0  0  0  0  0  0999 V2000
    3.7321    0.2500    0.0000 O   0  0  0  0  0  0  0  0  0  0  0  0
    2.8660    2.7500    0.0000 N   0  0  0  0  0  0  0  0  0  0  0  0
    4.5981   -0.2500    0.0000 C   0  0  0  0  0  0  0  0  0  0  0  0
    4.5981   -1.2500    0.0000 C   0  0  0  0  0  0  0  0  0  0  0  0
    5.4641    0.2500    0.0000 C   0  0  0  0  0  0  0  0  0  0  0  0
    3.7321    1.2500    0.0000 C   0  0  0  0  0  0  0  0  0  0  0  0
    2.8660    1.7500    0.0000 C   0  0  0  0  0  0  0  0  0  0  0  0
    3.7321   -1.7500    0.0000 C   0  0  0  0  0  0  0  0  0  0  0  0
    6.3301   -0.2500    0.0000 C   0  0  0  0  0  0  0  0  0  0  0  0
    5.4641   -1.7500    0.0000 C   0  0  0  0  0  0  0  0  0  0  0  0
    5.4641    1.2500    0.0000 C   0  0  0  0  0  0  0  0  0  0  0  0
    2.0000    3.2500    0.0000 C   0  0  0  0  0  0  0  0  0  0  0  0
    3.7321    3.2500    0.0000 C   0  0  0  0  0  0  0  0  0  0  0  0
    3.7321   -2.7500    0.0000 C   0  0  0  0  0  0  0  0  0  0  0  0
    7.1962    0.2500    0.0000 C   0  0  0  0  0  0  0  0  0  0  0  0
    5.4641   -2.7500    0.0000 C   0  0  0  0  0  0  0  0  0  0  0  0
    6.3301    1.7500    0.0000 C   0  0  0  0  0  0  0  0  0  0  0  0
    4.5981   -3.2500    0.0000 C   0  0  0  0  0  0  0  0  0  0  0  0
    7.1962    1.2500    0.0000 C   0  0  0  0  0  0  0  0  0  0  0  0
    4.5981    0.3700    0.0000 H   0  0  0  0  0  0  0  0  0  0  0  0
    4.3426    1.1423    0.0000 H   0  0  0  0  0  0  0  0  0  0  0  0
    3.9441    1.8326    0.0000 H   0  0  0  0  0  0  0  0  0  0  0  0
    2.2554    1.8577    0.0000 H   0  0  0  0  0  0  0  0  0  0  0  0
    2.6540    1.1674    0.0000 H   0  0  0  0  0  0  0  0  0  0  0  0
    3.1951   -1.4400    0.0000 H   0  0  0  0  0  0  0  0  0  0  0  0
    6.3301   -0.8700    0.0000 H   0  0  0  0  0  0  0  0  0  0  0  0
    6.0010   -1.4400    0.0000 H   0  0  0  0  0  0  0  0  0  0  0  0
    4.9272    1.5600    0.0000 H   0  0  0  0  0  0  0  0  0  0  0  0
    2.3100    3.7869    0.0000 H   0  0  0  0  0  0  0  0  0  0  0  0
    1.4631    3.5600    0.0000 H   0  0  0  0  0  0  0  0  0  0  0  0
    1.6900    2.7131    0.0000 H   0  0  0  0  0  0  0  0  0  0  0  0
    4.0421    2.7131    0.0000 H   0  0  0  0  0  0  0  0  0  0  0  0
    4.2690    3.5600    0.0000 H   0  0  0  0  0  0  0  0  0  0  0  0
    3.4221    3.7869    0.0000 H   0  0  0  0  0  0  0  0  0  0  0  0
    3.1951   -3.0600    0.0000 H   0  0  0  0  0  0  0  0  0  0  0  0
    7.7331   -0.0600    0.0000 H   0  0  0  0  0  0  0  0  0  0  0  0
    6.0010   -3.0600    0.0000 H   0  0  0  0  0  0  0  0  0  0  0  0
    6.3301    2.3700    0.0000 H   0  0  0  0  0  0  0  0  0  0  0  0
    4.5981   -3.8700    0.0000 H   0  0  0  0  0  0  0  0  0  0  0  0
    7.7331    1.5600    0.0000 H   0  0  0  0  0  0  0  0  0  0  0  0
  1  3  1  0  0  0  0
  1  6  1  0  0  0  0
  2  7  1  0  0  0  0
  2 12  1  0  0  0  0
  2 13  1  0  0  0  0
  3  4  1  0  0  0  0
  3  5  1  0  0  0  0
  3 20  1  0  0  0  0
  4  8  2  0  0  0  0
  4 10  1  0  0  0  0
  5  9  2  0  0  0  0
  5 11  1  0  0  0  0
  6  7  1  0  0  0  0
  6 21  1  0  0  0  0
  6 22  1  0  0  0  0
  7 23  1  0  0  0  0
  7 24  1  0  0  0  0
  8 14  1  0  0  0  0
  8 25  1  0  0  0  0
  9 15  1  0  0  0  0
  9 26  1  0  0  0  0
 10 16  2  0  0  0  0
 10 27  1  0  0  0  0
 11 17  2  0  0  0  0
 11 28  1  0  0  0  0
 12 29  1  0  0  0  0
 12 30  1  0  0  0  0
 12 31  1  0  0  0  0
 13 32  1  0  0  0  0
 13 33  1  0  0  0  0
 13 34  1  0  0  0  0
 14 18  2  0  0  0  0
 14 35  1  0  0  0  0
 15 19  2  0  0  0  0
 15 36  1  0  0  0  0
 16 18  1  0  0  0  0
 16 37  1  0  0  0  0
 17 19  1  0  0  0  0
 17 38  1  0  0  0  0
 18 39  1  0  0  0  0
 19 40  1  0  0  0  0
M  END
> <PUBCHEM_COMPOUND_CID>
3100

> <PUBCHEM_COMPOUND_CANONICALIZED>
1

> <PUBCHEM_CACTVS_COMPLEXITY>
211

> <PUBCHEM_CACTVS_HBOND_ACCEPTOR>
2

> <PUBCHEM_CACTVS_HBOND_DONOR>
0

> <PUBCHEM_CACTVS_ROTATABLE_BOND>
6

> <PUBCHEM_CACTVS_SUBSKEYS>
AAADceB6IAAAAAAAAAAAAAAAAAAAAAAAAAAwYAAAAAAAAAABQAAAHgAAAAAADBThmAYyAIMABACAAiBCAAACAAAgAAAIiAAICIgKJiKAMRiDMAAkwAEYqAeAwOAOAAAAAAAAAAAAAAAAAAAAAAAAAAAAAA==

> <PUBCHEM_IUPAC_OPENEYE_NAME>
2-benzhydryloxy-N,N-dimethyl-ethanamine

> <PUBCHEM_IUPAC_CAS_NAME>
2-(diphenylmethyl)oxy-N,N-dimethylethanamine

> <PUBCHEM_IUPAC_NAME_MARKUP>
2-benzhydryloxy-<I>N</I>,<I>N</I>-dimethylethanamine

> <PUBCHEM_IUPAC_NAME>
2-benzhydryloxy-N,N-dimethylethanamine

> <PUBCHEM_IUPAC_SYSTEMATIC_NAME>
2-(diphenylmethyl)oxy-N,N-dimethyl-ethanamine

> <PUBCHEM_IUPAC_TRADITIONAL_NAME>
2-benzhydryloxyethyl(dimethyl)amine

> <PUBCHEM_IUPAC_INCHI>
InChI=1S/C17H21NO/c1-18(2)13-14-19-17(15-9-5-3-6-10-15)16-11-7-4-8-12-16/h3-12,17H,13-14H2,1-2H3

> <PUBCHEM_IUPAC_INCHIKEY>
ZZVUWRFHKOJYTH-UHFFFAOYSA-N

> <PUBCHEM_XLOGP3>
3.3

> <PUBCHEM_EXACT_MASS>
255.162314293

> <PUBCHEM_MOLECULAR_FORMULA>
C17H21NO

> <PUBCHEM_MOLECULAR_WEIGHT>
255.35

> <PUBCHEM_SMILES>
CN(C)CCOC(C1=CC=CC=C1)C2=CC=CC=C2

> <PUBCHEM_CONNECTIVITY_SMILES>
CN(C)CCOC(C1=CC=CC=C1)C2=CC=CC=C2

> <PUBCHEM_CACTVS_TPSA>
12.5

> <PUBCHEM_MONOISOTOPIC_WEIGHT>
255.162314293

> <PUBCHEM_TOTAL_CHARGE>
0

> <PUBCHEM_HEAVY_ATOM_COUNT>
19

> <PUBCHEM_ATOM_DEF_STEREO_COUNT>
0

> <PUBCHEM_ATOM_UDEF_STEREO_COUNT>
0

> <PUBCHEM_BOND_DEF_STEREO_COUNT>
0

> <PUBCHEM_BOND_UDEF_STEREO_COUNT>
0

> <PUBCHEM_ISOTOPIC_ATOM_COUNT>
0

> <PUBCHEM_COMPONENT_COUNT>
1

> <PUBCHEM_CACTVS_TAUTO_COUNT>
-1

> <PUBCHEM_COORDINATE_TYPE>
1
5
255

> <PUBCHEM_BONDANNOTATIONS>
10  16  8
11  17  8
14  18  8
15  19  8
16  18  8
17  19  8
4  10  8
4  8  8
5  11  8
5  9  8
8  14  8
9  15  8

$$$$
2725
  -OEChem-08112611012D

 38 39  0     1  0  0  0  0  0999 V2000
    4.5981   -3.5000    0.0000 Cl  0  0  0  0  0  0  0  0  0  0  0  0
    2.8660    2.5000    0.0000 N   0  0  0  0  0  0  0  0  0  0  0  0
    5.4641    2.0000    0.0000 N   0  0  0  0  0  0  0  0  0  0  0  0
    4.5981    0.5000    0.0000 C   0  0  3  0  0  0  0  0  0  0  0  0
    3.7321    1.0000    0.0000 C   0  0  0  0  0  0  0  0  0  0  0  0
    3.7321    2.0000    0.0000 C   0  0  0  0  0  0  0  0  0  0  0  0
    4.5981   -0.5000    0.0000 C   0  0  0  0  0  0  0  0  0  0  0  0
    5.4641    1.0000    0.0000 C   0  0  0  0  0  0  0  0  0  0  0  0
    3.7321   -1.0000    0.0000 C   0  0  0  0  0  0  0  0  0  0  0  0
    5.4641   -1.0000    0.0000 C   0  0  0  0  0  0  0  0  0  0  0  0
    6.3301    0.5000    0.0000 C   0  0  0  0  0  0  0  0  0  0  0  0
    2.8660    3.5000    0.0000 C   0  0  0  0  0  0  0  0  0  0  0  0
    2.0000    2.0000    0.0000 C   0  0  0  0  0  0  0  0  0  0  0  0
    3.7321   -2.0000    0.0000 C   0  0  0  0  0  0  0  0  0  0  0  0
    5.4641   -2.0000    0.0000 C   0  0  0  0  0  0  0  0  0  0  0  0
    7.1962    1.0000    0.0000 C   0  0  0  0  0  0  0  0  0  0  0  0
    4.5981   -2.5000    0.0000 C   0  0  0  0  0  0  0  0  0  0  0  0
    6.3301    2.5000    0.0000 C   0  0  0  0  0  0  0  0  0  0  0  0
    7.1962    2.0000    0.0000 C   0  0  0  0  0  0  0  0  0  0  0  0
    4.5981    1.1200    0.0000 H   0  0  0  0  0  0  0  0  0  0  0  0
    3.1215    1.1077    0.0000 H   0  0  0  0  0  0  0  0  0  0  0  0
    3.5200    0.4174    0.0000 H   0  0  0  0  0  0  0  0  0  0  0  0
    4.3426    1.8923    0.0000 H   0  0  0  0  0  0  0  0  0  0  0  0
    3.9441    2.5826    0.0000 H   0  0  0  0  0  0  0  0  0  0  0  0
    3.1951   -0.6900    0.0000 H   0  0  0  0  0  0  0  0  0  0  0  0
    6.0010   -0.6900    0.0000 H   0  0  0  0  0  0  0  0  0  0  0  0
    6.3301   -0.1200    0.0000 H   0  0  0  0  0  0  0  0  0  0  0  0
    3.4860    3.5000    0.0000 H   0  0  0  0  0  0  0  0  0  0  0  0
    2.8660    4.1200    0.0000 H   0  0  0  0  0  0  0  0  0  0  0  0
    2.2460    3.5000    0.0000 H   0  0  0  0  0  0  0  0  0  0  0  0
    1.6900    2.5369    0.0000 H   0  0  0  0  0  0  0  0  0  0  0  0
    1.4631    1.6900    0.0000 H   0  0  0  0  0  0  0  0  0  0  0  0
    2.3100    1.4631    0.0000 H   0  0  0  0  0  0  0  0  0  0  0  0
    3.1951   -2.3100    0.0000 H   0  0  0  0  0  0  0  0  0  0  0  0
    6.0010   -2.3100    0.0000 H   0  0  0  0  0  0  0  0  0  0  0  0
    7.7331    0.6900    0.0000 H   0  0  0  0  0  0  0  0  0  0  0  0
    6.3301    3.1200    0.0000 H   0  0  0  0  0  0  0  0  0  0  0  0
    7.7331    2.3100    0.0000 H   0  0  0  0  0  0  0  0  0  0  0  0
  1 17  1  0  0  0  0
  2  6  1  0  0  0  0
  2 12  1  0  0  0  0
  2 13  1  0  0  0  0
  3  8  1  0  0  0  0
  3 18  2  0  0  0  0
  4  5  1  0  0  0  0
  4  7  1  0  0  0  0
  4  8  1  0  0  0  0
  4 20  1  0  0  0  0
  5  6  1  0  0  0  0
  5 21  1  0  0  0  0
  5 22  1  0  0  0  0
  6 23  1  0  0  0  0
  6 24  1  0  0  0  0
  7  9  2  0  0  0  0
  7 10  1  0  0  0  0
  8 11  2  0  0  0  0
  9 14  1  0  0  0  0
  9 25  1  0  0  0  0
 10 15  2  0  0  0  0
 10 26  1  0  0  0  0
 11 16  1  0  0  0  0
 11 27  1  0  0  0  0
 12 28  1  0  0  0  0
 12 29  1  0  0  0  0
 12 30  1  0  0  0  0
 13 31  1  0  0  0  0
 13 32  1  0  0  0  0
 13 33  1  0  0  0  0
 14 17  2  0  0  0  0
 14 34  1  0  0  0  0
 15 17  1  0  0  0  0
 15 35  1  0  0  0  0
 16 19  2  0  0  0  0
 16 36  1  0  0  0  0
 18 19  1  0  0  0  0
 18 37  1  0  0  0  0
 19 38  1  0  0  0  0
M  END
> <PUBCHEM_COMPOUND_CID>
2725

> <PUBCHEM_COMPOUND_CANONICALIZED>
1

> <PUBCHEM_CACTVS_COMPLEXITY>
249

> <PUBCHEM_CACTVS_HBOND_ACCEPTOR>
2

> <PUBCHEM_CACTVS_HBOND_DONOR>
0

> <PUBCHEM_CACTVS_ROTATABLE_BOND>
5

> <PUBCHEM_CACTVS_SUBSKEYS>
AAADceB7AAAEAAAAAAAAAAAAAAAAAAAAAAA8QAAAAAAAAAABwAAAHAIAAAAADQrBHiQ+gJMIEACgAzRnRACCgCAxByAI2CA4ZpgIIOLBk5GEIAhggADIyAcQgMAOhAAAAAAAAAAIAAAAAAAAAAAAAAAAAA==

> <PUBCHEM_IUPAC_OPENEYE_NAME>
3-(4-chlorophenyl)-N,N-dimethyl-3-(2-pyridyl)propan-1-amine

> <PUBCHEM_IUPAC_CAS_NAME>
3-(4-chlorophenyl)-N,N-dimethyl-3-(2-pyridinyl)-1-propanamine

> <PUBCHEM_IUPAC_NAME_MARKUP>
3-(4-chlorophenyl)-<I>N</I>,<I>N</I>-dimethyl-3-pyridin-2-ylpropan-1-amine

> <PUBCHEM_IUPAC_NAME>
3-(4-chlorophenyl)-N,N-dimethyl-3-pyridin-2-ylpropan-1-amine

> <PUBCHEM_IUPAC_SYSTEMATIC_NAME>
3-(4-chlorophenyl)-N,N-dimethyl-3-pyridin-2-yl-propan-1-amine

> <PUBCHEM_IUPAC_TRADITIONAL_NAME>
[3-(4-chlorophenyl)-3-(2-pyridyl)propyl]-dimethyl-amine

> <PUBCHEM_IUPAC_INCHI>
InChI=1S/C16H19ClN2/c1-19(2)12-10-15(16-5-3-4-11-18-16)13-6-8-14(17)9-7-13/h3-9,11,15H,10,12H2,1-2H3

> <PUBCHEM_IUPAC_INCHIKEY>
SOYKEARSMXGVTM-UHFFFAOYSA-N

> <PUBCHEM_XLOGP3>
3.4

> <PUBCHEM_EXACT_MASS>
274.1236763

> <PUBCHEM_MOLECULAR_FORMULA>
C16H19ClN2

> <PUBCHEM_MOLECULAR_WEIGHT>
274.79

> <PUBCHEM_SMILES>
CN(C)CCC(C1=CC=C(C=C1)Cl)C2=CC=CC=N2

> <PUBCHEM_CONNECTIVITY_SMILES>
CN(C)CCC(C1=CC=C(C=C1)Cl)C2=CC=CC=N2

> <PUBCHEM_CACTVS_TPSA>
16.1

> <PUBCHEM_MONOISOTOPIC_WEIGHT>
274.1236763

> <PUBCHEM_TOTAL_CHARGE>
0

> <PUBCHEM_HEAVY_ATOM_COUNT>
19

> <PUBCHEM_ATOM_DEF_STEREO_COUNT>
0

> <PUBCHEM_ATOM_UDEF_STEREO_COUNT>
1

> <PUBCHEM_BOND_DEF_STEREO_COUNT>
0

> <PUBCHEM_BOND_UDEF_STEREO_COUNT>
0

> <PUBCHEM_ISOTOPIC_ATOM_COUNT>
0

> <PUBCHEM_COMPONENT_COUNT>
1

> <PUBCHEM_CACTVS_TAUTO_COUNT>
-1

> <PUBCHEM_COORDINATE_TYPE>
1
5
255

> <PUBCHEM_BONDANNOTATIONS>
10  15  8
11  16  8
14  17  8
15  17  8
16  19  8
18  19  8
3  18  8
3  8  8
4  5  3
7  10  8
7  9  8
8  11  8
9  14  8

$$$$
3658
  -OEChem-08112611012D

 53 55  0     1  0  0  0  0  0999 V2000
    2.0000   -5.0600    0.0000 Cl  0  0  0  0  0  0  0  0  0  0  0  0
    6.3301    2.4400    0.0000 O   0  0  0  0  0  0  0  0  0  0  0  0
    8.0622    4.4400    0.0000 O   0  0  0  0  0  0  0  0  0  0  0  0
    5.4641   -2.0600    0.0000 N   0  0  0  0  0  0  0  0  0  0  0  0
    5.4641   -0.0600    0.0000 N   0  0  0  0  0  0  0  0  0  0  0  0
    4.5981   -1.5600    0.0000 C   0  0  0  0  0  0  0  0  0  0  0  0
    6.3301   -1.5600    0.0000 C   0  0  0  0  0  0  0  0  0  0  0  0
    4.5981   -0.5600    0.0000 C   0  0  0  0  0  0  0  0  0  0  0  0
    6.3301   -0.5600    0.0000 C   0  0  0  0  0  0  0  0  0  0  0  0
    5.4641   -3.0600    0.0000 C   0  0  3  0  0  0  0  0  0  0  0  0
    5.4641    0.9400    0.0000 C   0  0  0  0  0  0  0  0  0  0  0  0
    4.5981   -3.5600    0.0000 C   0  0  0  0  0  0  0  0  0  0  0  0
    6.3301   -3.5600    0.0000 C   0  0  0  0  0  0  0  0  0  0  0  0
    6.3301    1.4400    0.0000 C   0  0  0  0  0  0  0  0  0  0  0  0
    3.7321   -3.0600    0.0000 C   0  0  0  0  0  0  0  0  0  0  0  0
    4.5981   -4.5600    0.0000 C   0  0  0  0  0  0  0  0  0  0  0  0
    6.3301   -4.5600    0.0000 C   0  0  0  0  0  0  0  0  0  0  0  0
    7.1962   -3.0600    0.0000 C   0  0  0  0  0  0  0  0  0  0  0  0
    2.8660   -3.5600    0.0000 C   0  0  0  0  0  0  0  0  0  0  0  0
    3.7321   -5.0600    0.0000 C   0  0  0  0  0  0  0  0  0  0  0  0
    7.1962   -5.0600    0.0000 C   0  0  0  0  0  0  0  0  0  0  0  0
    8.0622   -3.5600    0.0000 C   0  0  0  0  0  0  0  0  0  0  0  0
    2.8660   -4.5600    0.0000 C   0  0  0  0  0  0  0  0  0  0  0  0
    8.0622   -4.5600    0.0000 C   0  0  0  0  0  0  0  0  0  0  0  0
    7.1962    2.9400    0.0000 C   0  0  0  0  0  0  0  0  0  0  0  0
    7.1962    3.9400    0.0000 C   0  0  0  0  0  0  0  0  0  0  0  0
    3.9875   -1.4523    0.0000 H   0  0  0  0  0  0  0  0  0  0  0  0
    4.3860   -2.1426    0.0000 H   0  0  0  0  0  0  0  0  0  0  0  0
    6.5422   -2.1426    0.0000 H   0  0  0  0  0  0  0  0  0  0  0  0
    6.9407   -1.4523    0.0000 H   0  0  0  0  0  0  0  0  0  0  0  0
    4.3860    0.0226    0.0000 H   0  0  0  0  0  0  0  0  0  0  0  0
    3.9875   -0.6677    0.0000 H   0  0  0  0  0  0  0  0  0  0  0  0
    6.9407   -0.6677    0.0000 H   0  0  0  0  0  0  0  0  0  0  0  0
    6.5422    0.0226    0.0000 H   0  0  0  0  0  0  0  0  0  0  0  0
    5.4641   -3.6800    0.0000 H   0  0  0  0  0  0  0  0  0  0  0  0
    5.2521    1.5226    0.0000 H   0  0  0  0  0  0  0  0  0  0  0  0
    4.8535    0.8323    0.0000 H   0  0  0  0  0  0  0  0  0  0  0  0
    6.5422    0.8574    0.0000 H   0  0  0  0  0  0  0  0  0  0  0  0
    6.9407    1.5477    0.0000 H   0  0  0  0  0  0  0  0  0  0  0  0
    3.7321   -2.4400    0.0000 H   0  0  0  0  0  0  0  0  0  0  0  0
    5.1350   -4.8700    0.0000 H   0  0  0  0  0  0  0  0  0  0  0  0
    5.7932   -4.8700    0.0000 H   0  0  0  0  0  0  0  0  0  0  0  0
    7.1962   -2.4400    0.0000 H   0  0  0  0  0  0  0  0  0  0  0  0
    2.3291   -3.2500    0.0000 H   0  0  0  0  0  0  0  0  0  0  0  0
    3.7321   -5.6800    0.0000 H   0  0  0  0  0  0  0  0  0  0  0  0
    7.1962   -5.6800    0.0000 H   0  0  0  0  0  0  0  0  0  0  0  0
    8.5991   -3.2500    0.0000 H   0  0  0  0  0  0  0  0  0  0  0  0
    8.5991   -4.8700    0.0000 H   0  0  0  0  0  0  0  0  0  0  0  0
    7.4082    2.3574    0.0000 H   0  0  0  0  0  0  0  0  0  0  0  0
    7.8067    3.0477    0.0000 H   0  0  0  0  0  0  0  0  0  0  0  0
    6.9841    4.5226    0.0000 H   0  0  0  0  0  0  0  0  0  0  0  0
    6.5856    3.8323    0.0000 H   0  0  0  0  0  0  0  0  0  0  0  0
    8.0622    5.0600    0.0000 H   0  0  0  0  0  0  0  0  0  0  0  0
  1 23  1  0  0  0  0
  2 14  1  0  0  0  0
  2 25  1  0  0  0  0
  3 26  1  0  0  0  0
  3 53  1  0  0  0  0
  4  6  1  0  0  0  0
  4  7  1  0  0  0  0
  4 10  1  0  0  0  0
  5  8  1  0  0  0  0
  5  9  1  0  0  0  0
  5 11  1  0  0  0  0
  6  8  1  0  0  0  0
  6 27  1  0  0  0  0
  6 28  1  0  0  0  0
  7  9  1  0  0  0  0
  7 29  1  0  0  0  0
  7 30  1  0  0  0  0
  8 31  1  0  0  0  0
  8 32  1  0  0  0  0
  9 33  1  0  0  0  0
  9 34  1  0  0  0  0
 10 12  1  0  0  0  0
 10 13  1  0  0  0  0
 10 35  1  0  0  0  0
 11 14  1  0  0  0  0
 11 36  1  0  0  0  0
 11 37  1  0  0  0  0
 12 15  2  0  0  0  0
 12 16  1  0  0  0  0
 13 17  2  0  0  0  0
 13 18  1  0  0  0  0
 14 38  1  0  0  0  0
 14 39  1  0  0  0  0
 15 19  1  0  0  0  0
 15 40  1  0  0  0  0
 16 20  2  0  0  0  0
 16 41  1  0  0  0  0
 17 21  1  0  0  0  0
 17 42  1  0  0  0  0
 18 22  2  0  0  0  0
 18 43  1  0  0  0  0
 19 23  2  0  0  0  0
 19 44  1  0  0  0  0
 20 23  1  0  0  0  0
 20 45  1  0  0  0  0
 21 24  2  0  0  0  0
 21 46  1  0  0  0  0
 22 24  1  0  0  0  0
 22 47  1  0  0  0  0
 24 48  1  0  0  0  0
 25 26  1  0  0  0  0
 25 49  1  0  0  0  0
 25 50  1  0  0  0  0
 26 51  1  0  0  0  0
 26 52  1  0  0  0  0
M  END
> <PUBCHEM_COMPOUND_CID>
3658

> <PUBCHEM_COMPOUND_CANONICALIZED>
1

> <PUBCHEM_CACTVS_COMPLEXITY>
376

> <PUBCHEM_CACTVS_HBOND_ACCEPTOR>
4

> <PUBCHEM_CACTVS_HBOND_DONOR>
1

> <PUBCHEM_CACTVS_ROTATABLE_BOND>
8

> <PUBCHEM_CACTVS_SUBSKEYS>
AAADceB7MAAEAAAAAAAAAAAAAAAAAAAAAAA8YIAAAAAAAAABQAAAHgIACAAADCrhmCYwAIMABgCAAiBCAACCAAAgBQAIiAAIBogLcCKBkxGXIAhggACbiAcQgMAOBAAAAAAAAAAIAAAAAAAAAAAAAAAAAA==

> <PUBCHEM_IUPAC_OPENEYE_NAME>
2-[2-[4-[(4-chlorophenyl)-phenyl-methyl]piperazin-1-yl]ethoxy]ethanol

> <PUBCHEM_IUPAC_CAS_NAME>
2-[2-[4-[(4-chlorophenyl)-phenylmethyl]-1-piperazinyl]ethoxy]ethanol

> <PUBCHEM_IUPAC_NAME_MARKUP>
2-[2-[4-[(4-chlorophenyl)-phenylmethyl]piperazin-1-yl]ethoxy]ethanol

> <PUBCHEM_IUPAC_NAME>
2-[2-[4-[(4-chlorophenyl)-phenylmethyl]piperazin-1-yl]ethoxy]ethanol

> <PUBCHEM_IUPAC_SYSTEMATIC_NAME>
2-[2-[4-[(4-chlorophenyl)-phenyl-methyl]piperazin-1-yl]ethoxy]ethanol

> <PUBCHEM_IUPAC_TRADITIONAL_NAME>
2-[2-[4-[(4-chlorophenyl)-phenyl-methyl]piperazino]ethoxy]ethanol

> <PUBCHEM_IUPAC_INCHI>
InChI=1S/C21H27ClN2O2/c22-20-8-6-19(7-9-20)21(18-4-2-1-3-5-18)24-12-10-23(11-13-24)14-16-26-17-15-25/h1-9,21,25H,10-17H2

> <PUBCHEM_IUPAC_INCHIKEY>
ZQDWXGKKHFNSQK-UHFFFAOYSA-N

> <PUBCHEM_XLOGP3>
3.7

> <PUBCHEM_EXACT_MASS>
374.1761058

> <PUBCHEM_MOLECULAR_FORMULA>
C21H27ClN2O2

> <PUBCHEM_MOLECULAR_WEIGHT>
374.9

> <PUBCHEM_SMILES>
C1CN(CCN1CCOCCO)C(C2=CC=CC=C2)C3=CC=C(C=C3)Cl

> <PUBCHEM_CONNECTIVITY_SMILES>
C1CN(CCN1CCOCCO)C(C2=CC=CC=C2)C3=CC=C(C=C3)Cl

> <PUBCHEM_CACTVS_TPSA>
35.9

> <PUBCHEM_MONOISOTOPIC_WEIGHT>
374.1761058

> <PUBCHEM_TOTAL_CHARGE>
0

> <PUBCHEM_HEAVY_ATOM_COUNT>
26

> <PUBCHEM_ATOM_DEF_STEREO_COUNT>
0

> <PUBCHEM_ATOM_UDEF_STEREO_COUNT>
1

> <PUBCHEM_BOND_DEF_STEREO_COUNT>
0

> <PUBCHEM_BOND_UDEF_STEREO_COUNT>
0

> <PUBCHEM_ISOTOPIC_ATOM_COUNT>
0

> <PUBCHEM_COMPONENT_COUNT>
1

> <PUBCHEM_CACTVS_TAUTO_COUNT>
-1

> <PUBCHEM_COORDINATE_TYPE>
1
5
255

> <PUBCHEM_BONDANNOTATIONS>
10  13  3
12  15  8
12  16  8
13  17  8
13  18  8
15  19  8
16  20  8
17  21  8
18  22  8
19  23  8
20  23  8
21  24  8
22  24  8

$$$$
3162
  -OEChem-08112611012D

 42 43  0     1  0  0  0  0  0999 V2000
    5.0000   -0.0000    0.0000 O   0  0  0  0  0  0  0  0  0  0  0  0
    3.0000    1.7321    0.0000 N   0  0  0  0  0  0  0  0  0  0  0  0
    6.8660    1.5000    0.0000 N   0  0  0  0  0  0  0  0  0  0  0  0
    6.0000   -0.0000    0.0000 C   0  0  3  0  0  0  0  0  0  0  0  0
    6.0000   -1.0000    0.0000 C   0  0  0  0  0  0  0  0  0  0  0  0
    6.0000    1.0000    0.0000 C   0  0  0  0  0  0  0  0  0  0  0  0
    7.0000   -0.0000    0.0000 C   0  0  0  0  0  0  0  0  0  0  0  0
    4.5000    0.8660    0.0000 C   0  0  0  0  0  0  0  0  0  0  0  0
    3.5000    0.8660    0.0000 C   0  0  0  0  0  0  0  0  0  0  0  0
    5.1340   -1.5000    0.0000 C   0  0  0  0  0  0  0  0  0  0  0  0
    6.8660   -1.5000    0.0000 C   0  0  0  0  0  0  0  0  0  0  0  0
    5.1340    1.5000    0.0000 C   0  0  0  0  0  0  0  0  0  0  0  0
    5.1340   -2.5000    0.0000 C   0  0  0  0  0  0  0  0  0  0  0  0
    6.8660   -2.5000    0.0000 C   0  0  0  0  0  0  0  0  0  0  0  0
    5.1340    2.5000    0.0000 C   0  0  0  0  0  0  0  0  0  0  0  0
    6.0000   -3.0000    0.0000 C   0  0  0  0  0  0  0  0  0  0  0  0
    2.0000    1.7321    0.0000 C   0  0  0  0  0  0  0  0  0  0  0  0
    3.5000    2.5981    0.0000 C   0  0  0  0  0  0  0  0  0  0  0  0
    6.8660    2.5000    0.0000 C   0  0  0  0  0  0  0  0  0  0  0  0
    6.0000    3.0000    0.0000 C   0  0  0  0  0  0  0  0  0  0  0  0
    7.0000   -0.6200    0.0000 H   0  0  0  0  0  0  0  0  0  0  0  0
    7.6200   -0.0000    0.0000 H   0  0  0  0  0  0  0  0  0  0  0  0
    7.0000    0.6200    0.0000 H   0  0  0  0  0  0  0  0  0  0  0  0
    5.0826    1.0781    0.0000 H   0  0  0  0  0  0  0  0  0  0  0  0
    4.3923    1.4766    0.0000 H   0  0  0  0  0  0  0  0  0  0  0  0
    2.9174    0.6540    0.0000 H   0  0  0  0  0  0  0  0  0  0  0  0
    3.6077    0.2554    0.0000 H   0  0  0  0  0  0  0  0  0  0  0  0
    4.5970   -1.1900    0.0000 H   0  0  0  0  0  0  0  0  0  0  0  0
    7.4030   -1.1900    0.0000 H   0  0  0  0  0  0  0  0  0  0  0  0
    4.5970    1.1900    0.0000 H   0  0  0  0  0  0  0  0  0  0  0  0
    4.5970   -2.8100    0.0000 H   0  0  0  0  0  0  0  0  0  0  0  0
    7.4030   -2.8100    0.0000 H   0  0  0  0  0  0  0  0  0  0  0  0
    4.5970    2.8100    0.0000 H   0  0  0  0  0  0  0  0  0  0  0  0
    6.0000   -3.6200    0.0000 H   0  0  0  0  0  0  0  0  0  0  0  0
    2.0000    2.3521    0.0000 H   0  0  0  0  0  0  0  0  0  0  0  0
    1.3800    1.7321    0.0000 H   0  0  0  0  0  0  0  0  0  0  0  0
    2.0000    1.1121    0.0000 H   0  0  0  0  0  0  0  0  0  0  0  0
    4.0369    2.2881    0.0000 H   0  0  0  0  0  0  0  0  0  0  0  0
    3.8100    3.1350    0.0000 H   0  0  0  0  0  0  0  0  0  0  0  0
    2.9631    2.9081    0.0000 H   0  0  0  0  0  0  0  0  0  0  0  0
    7.4030    2.8100    0.0000 H   0  0  0  0  0  0  0  0  0  0  0  0
    6.0000    3.6200    0.0000 H   0  0  0  0  0  0  0  0  0  0  0  0
  1  4  1  0  0  0  0
  1  8  1  0  0  0  0
  2  9  1  0  0  0  0
  2 17  1  0  0  0  0
  2 18  1  0  0  0  0
  3  6  1  0  0  0  0
  3 19  2  0  0  0  0
  4  5  1  0  0  0  0
  4  6  1  0  0  0  0
  4  7  1  0  0  0  0
  5 10  2  0  0  0  0
  5 11  1  0  0  0  0
  6 12  2  0  0  0  0
  7 21  1  0  0  0  0
  7 22  1  0  0  0  0
  7 23  1  0  0  0  0
  8  9  1  0  0  0  0
  8 24  1  0  0  0  0
  8 25  1  0  0  0  0
  9 26  1  0  0  0  0
  9 27  1  0  0  0  0
 10 13  1  0  0  0  0
 10 28  1  0  0  0  0
 11 14  2  0  0  0  0
 11 29  1  0  0  0  0
 12 15  1  0  0  0  0
 12 30  1  0  0  0  0
 13 16  2  0  0  0  0
 13 31  1  0  0  0  0
 14 16  1  0  0  0  0
 14 32  1  0  0  0  0
 15 20  2  0  0  0  0
 15 33  1  0  0  0  0
 16 34  1  0  0  0  0
 17 35  1  0  0  0  0
 17 36  1  0  0  0  0
 17 37  1  0  0  0  0
 18 38  1  0  0  0  0
 18 39  1  0  0  0  0
 18 40  1  0  0  0  0
 19 20  1  0  0  0  0
 19 41  1  0  0  0  0
 20 42  1  0  0  0  0
M  END
> <PUBCHEM_COMPOUND_CID>
3162

> <PUBCHEM_COMPOUND_CANONICALIZED>
1

> <PUBCHEM_CACTVS_COMPLEXITY>
276

> <PUBCHEM_CACTVS_HBOND_ACCEPTOR>
3

> <PUBCHEM_CACTVS_HBOND_DONOR>
0

> <PUBCHEM_CACTVS_ROTATABLE_BOND>
6

> <PUBCHEM_CACTVS_SUBSKEYS>
AAADceB7IAAAAAAAAAAAAAAAAAAAAAAAAAA8QAAAAAAAAAABwAAAHgAAAAAADEzhngY+gJMIFACgAzRnRASCgCAxAiAI2CA4bJgKJuLAsZmHMAhkwAHY6AeQwOAOgAAAAAAAAAAAAAAAAAAAAAAAAAAAAA==

> <PUBCHEM_IUPAC_OPENEYE_NAME>
N,N-dimethyl-2-[1-phenyl-1-(2-pyridyl)ethoxy]ethanamine

> <PUBCHEM_IUPAC_CAS_NAME>
N,N-dimethyl-2-[1-phenyl-1-(2-pyridinyl)ethoxy]ethanamine

> <PUBCHEM_IUPAC_NAME_MARKUP>
<I>N</I>,<I>N</I>-dimethyl-2-(1-phenyl-1-pyridin-2-ylethoxy)ethanamine

> <PUBCHEM_IUPAC_NAME>
N,N-dimethyl-2-(1-phenyl-1-pyridin-2-ylethoxy)ethanamine

> <PUBCHEM_IUPAC_SYSTEMATIC_NAME>
N,N-dimethyl-2-(1-phenyl-1-pyridin-2-yl-ethoxy)ethanamine

> <PUBCHEM_IUPAC_TRADITIONAL_NAME>
dimethyl-[2-[1-phenyl-1-(2-pyridyl)ethoxy]ethyl]amine

> <PUBCHEM_IUPAC_INCHI>
InChI=1S/C17H22N2O/c1-17(20-14-13-19(2)3,15-9-5-4-6-10-15)16-11-7-8-12-18-16/h4-12H,13-14H2,1-3H3

> <PUBCHEM_IUPAC_INCHIKEY>
HCFDWZZGGLSKEP-UHFFFAOYSA-N

> <PUBCHEM_XLOGP3_AA>
2.5

> <PUBCHEM_EXACT_MASS>
270.173213330

> <PUBCHEM_MOLECULAR_FORMULA>
C17H22N2O

> <PUBCHEM_MOLECULAR_WEIGHT>
270.37

> <PUBCHEM_SMILES>
CC(C1=CC=CC=C1)(C2=CC=CC=N2)OCCN(C)C

> <PUBCHEM_CONNECTIVITY_SMILES>
CC(C1=CC=CC=C1)(C2=CC=CC=N2)OCCN(C)C

> <PUBCHEM_CACTVS_TPSA>
25.4

> <PUBCHEM_MONOISOTOPIC_WEIGHT>
270.173213330

> <PUBCHEM_TOTAL_CHARGE>
0

> <PUBCHEM_HEAVY_ATOM_COUNT>
20

> <PUBCHEM_ATOM_DEF_STEREO_COUNT>
0

> <PUBCHEM_ATOM_UDEF_STEREO_COUNT>
1

> <PUBCHEM_BOND_DEF_STEREO_COUNT>
0

> <PUBCHEM_BOND_UDEF_STEREO_COUNT>
0

> <PUBCHEM_ISOTOPIC_ATOM_COUNT>
0

> <PUBCHEM_COMPONENT_COUNT>
1

> <PUBCHEM_CACTVS_TAUTO_COUNT>
-1

> <PUBCHEM_COORDINATE_TYPE>
1
5
255

> <PUBCHEM_BONDANNOTATIONS>
10  13  8
11  14  8
12  15  8
13  16  8
14  16  8
15  20  8
19  20  8
3  19  8
3  6  8
4  7  3
5  10  8
5  11  8
6  12  8

$$$$
2913
  -OEChem-08112611012D

 43 46  0     0  0  0  0  0  0999 V2000
    4.8830   -2.0953    0.0000 N   0  0  0  0  0  0  0  0  0  0  0  0
    4.8830   -0.0953    0.0000 C   0  0  0  0  0  0  0  0  0  0  0  0
    5.7490   -0.5953    0.0000 C   0  0  0  0  0  0  0  0  0  0  0  0
    4.0170   -0.5953    0.0000 C   0  0  0  0  0  0  0  0  0  0  0  0
    5.7490   -1.5953    0.0000 C   0  0  0  0  0  0  0  0  0  0  0  0
    4.0170   -1.5953    0.0000 C   0  0  0  0  0  0  0  0  0  0  0  0
    4.8830    0.9047    0.0000 C   0  0  0  0  0  0  0  0  0  0  0  0
    3.9820    1.3386    0.0000 C   0  0  0  0  0  0  0  0  0  0  0  0
    5.7840    1.3386    0.0000 C   0  0  0  0  0  0  0  0  0  0  0  0
    4.8830   -3.0953    0.0000 C   0  0  0  0  0  0  0  0  0  0  0  0
    3.7595    2.3135    0.0000 C   0  0  0  0  0  0  0  0  0  0  0  0
    6.0065    2.3135    0.0000 C   0  0  0  0  0  0  0  0  0  0  0  0
    3.2295    0.6184    0.0000 C   0  0  0  0  0  0  0  0  0  0  0  0
    6.5365    0.6184    0.0000 C   0  0  0  0  0  0  0  0  0  0  0  0
    4.3830    3.0953    0.0000 C   0  0  0  0  0  0  0  0  0  0  0  0
    5.3830    3.0953    0.0000 C   0  0  0  0  0  0  0  0  0  0  0  0
    2.7690    2.6358    0.0000 C   0  0  0  0  0  0  0  0  0  0  0  0
    6.9970    2.6358    0.0000 C   0  0  0  0  0  0  0  0  0  0  0  0
    2.2318    0.9177    0.0000 C   0  0  0  0  0  0  0  0  0  0  0  0
    7.5342    0.9177    0.0000 C   0  0  0  0  0  0  0  0  0  0  0  0
    2.0000    1.9333    0.0000 C   0  0  0  0  0  0  0  0  0  0  0  0
    7.7660    1.9332    0.0000 C   0  0  0  0  0  0  0  0  0  0  0  0
    6.3596   -0.7030    0.0000 H   0  0  0  0  0  0  0  0  0  0  0  0
    5.9611   -0.0127    0.0000 H   0  0  0  0  0  0  0  0  0  0  0  0
    3.8049   -0.0127    0.0000 H   0  0  0  0  0  0  0  0  0  0  0  0
    3.4064   -0.7030    0.0000 H   0  0  0  0  0  0  0  0  0  0  0  0
    5.9611   -2.1779    0.0000 H   0  0  0  0  0  0  0  0  0  0  0  0
    6.3596   -1.4877    0.0000 H   0  0  0  0  0  0  0  0  0  0  0  0
    3.4064   -1.4877    0.0000 H   0  0  0  0  0  0  0  0  0  0  0  0
    3.8049   -2.1779    0.0000 H   0  0  0  0  0  0  0  0  0  0  0  0
    4.2630   -3.0953    0.0000 H   0  0  0  0  0  0  0  0  0  0  0  0
    4.8830   -3.7153    0.0000 H   0  0  0  0  0  0  0  0  0  0  0  0
    5.5030   -3.0953    0.0000 H   0  0  0  0  0  0  0  0  0  0  0  0
    3.3744    0.0156    0.0000 H   0  0  0  0  0  0  0  0  0  0  0  0
    6.3916    0.0156    0.0000 H   0  0  0  0  0  0  0  0  0  0  0  0
    4.1140    3.6539    0.0000 H   0  0  0  0  0  0  0  0  0  0  0  0
    5.6520    3.6539    0.0000 H   0  0  0  0  0  0  0  0  0  0  0  0
    2.6381    3.2419    0.0000 H   0  0  0  0  0  0  0  0  0  0  0  0
    7.1280    3.2418    0.0000 H   0  0  0  0  0  0  0  0  0  0  0  0
    1.7789    0.4943    0.0000 H   0  0  0  0  0  0  0  0  0  0  0  0
    7.9871    0.4942    0.0000 H   0  0  0  0  0  0  0  0  0  0  0  0
    1.4083    2.1183    0.0000 H   0  0  0  0  0  0  0  0  0  0  0  0
    8.3578    2.1183    0.0000 H   0  0  0  0  0  0  0  0  0  0  0  0
  1  5  1  0  0  0  0
  1  6  1  0  0  0  0
  1 10  1  0  0  0  0
  2  3  1  0  0  0  0
  2  4  1  0  0  0  0
  2  7  2  0  0  0  0
  3  5  1  0  0  0  0
  3 23  1  0  0  0  0
  3 24  1  0  0  0  0
  4  6  1  0  0  0  0
  4 25  1  0  0  0  0
  4 26  1  0  0  0  0
  5 27  1  0  0  0  0
  5 28  1  0  0  0  0
  6 29  1  0  0  0  0
  6 30  1  0  0  0  0
  7  8  1  0  0  0  0
  7  9  1  0  0  0  0
  8 11  1  0  0  0  0
  8 13  2  0  0  0  0
  9 12  1  0  0  0  0
  9 14  2  0  0  0  0
 10 31  1  0  0  0  0
 10 32  1  0  0  0  0
 10 33  1  0  0  0  0
 11 15  1  0  0  0  0
 11 17  2  0  0  0  0
 12 16  1  0  0  0  0
 12 18  2  0  0  0  0
 13 19  1  0  0  0  0
 13 34  1  0  0  0  0
 14 20  1  0  0  0  0
 14 35  1  0  0  0  0
 15 16  2  0  0  0  0
 15 36  1  0  0  0  0
 16 37  1  0  0  0  0
 17 21  1  0  0  0  0
 17 38  1  0  0  0  0
 18 22  1  0  0  0  0
 18 39  1  0  0  0  0
 19 21  2  0  0  0  0
 19 40  1  0  0  0  0
 20 22  2  0  0  0  0
 20 41  1  0  0  0  0
 21 42  1  0  0  0  0
 22 43  1  0  0  0  0
M  END
> <PUBCHEM_COMPOUND_CID>
2913

> <PUBCHEM_COMPOUND_CANONICALIZED>
1

> <PUBCHEM_CACTVS_COMPLEXITY>
423

> <PUBCHEM_CACTVS_HBOND_ACCEPTOR>
1

> <PUBCHEM_CACTVS_HBOND_DONOR>
0

> <PUBCHEM_CACTVS_ROTATABLE_BOND>
0

> <PUBCHEM_CACTVS_SUBSKEYS>
AAADceB6AAAAAAAAAAAAAAAAAAAAAAAAAAA8YIAABAAAAAABQAAAHAAAAAAADADBGAQyAIMAAACAAiBCAAACAAAgAAAIiAAIAIgIICKAkRCEIAAggACIiAcQgMAOgAAAAAAQAAAAAAAAACAAAAAAAAAAAA==

> <PUBCHEM_IUPAC_OPENEYE_NAME>
1-methyl-4-(2-tricyclo[9.4.0.03,8]pentadeca-1(15),3,5,7,9,11,13-heptaenylidene)piperidine

> <PUBCHEM_IUPAC_CAS_NAME>
1-methyl-4-(2-tricyclo[9.4.0.03,8]pentadeca-1(15),3,5,7,9,11,13-heptaenylidene)piperidine

> <PUBCHEM_IUPAC_NAME_MARKUP>
1-methyl-4-(2-tricyclo[9.4.0.0<SUP>3,8</SUP>]pentadeca-1(15),3,5,7,9,11,13-heptaenylidene)piperidine

> <PUBCHEM_IUPAC_NAME>
1-methyl-4-(2-tricyclo[9.4.0.03,8]pentadeca-1(15),3,5,7,9,11,13-heptaenylidene)piperidine

> <PUBCHEM_IUPAC_SYSTEMATIC_NAME>
1-methyl-4-(2-tricyclo[9.4.0.03,8]pentadeca-1(15),3,5,7,9,11,13-heptaenylidene)piperidine

> <PUBCHEM_IUPAC_TRADITIONAL_NAME>
1-methyl-4-(2-tricyclo[9.4.0.03,8]pentadeca-1(15),3,5,7,9,11,13-heptaenylidene)piperidine

> <PUBCHEM_IUPAC_INCHI>
InChI=1S/C21H21N/c1-22-14-12-18(13-15-22)21-19-8-4-2-6-16(19)10-11-17-7-3-5-9-20(17)21/h2-11H,12-15H2,1H3

> <PUBCHEM_IUPAC_INCHIKEY>
JJCFRYNCJDLXIK-UHFFFAOYSA-N

> <PUBCHEM_XLOGP3>
4.7

> <PUBCHEM_EXACT_MASS>
287.167399674

> <PUBCHEM_MOLECULAR_FORMULA>
C21H21N

> <PUBCHEM_MOLECULAR_WEIGHT>
287.4

> <PUBCHEM_SMILES>
CN1CCC(=C2C3=CC=CC=C3C=CC4=CC=CC=C42)CC1

> <PUBCHEM_CONNECTIVITY_SMILES>
CN1CCC(=C2C3=CC=CC=C3C=CC4=CC=CC=C42)CC1

> <PUBCHEM_CACTVS_TPSA>
3.2

> <PUBCHEM_MONOISOTOPIC_WEIGHT>
287.167399674

> <PUBCHEM_TOTAL_CHARGE>
0

> <PUBCHEM_HEAVY_ATOM_COUNT>
22

> <PUBCHEM_ATOM_DEF_STEREO_COUNT>
0

> <PUBCHEM_ATOM_UDEF_STEREO_COUNT>
0

> <PUBCHEM_BOND_DEF_STEREO_COUNT>
0

> <PUBCHEM_BOND_UDEF_STEREO_COUNT>
0

> <PUBCHEM_ISOTOPIC_ATOM_COUNT>
0

> <PUBCHEM_COMPONENT_COUNT>
1

> <PUBCHEM_CACTVS_TAUTO_COUNT>
-1

> <PUBCHEM_COORDINATE_TYPE>
1
5
255

> <PUBCHEM_BONDANNOTATIONS>
11  17  8
12  18  8
13  19  8
14  20  8
17  21  8
18  22  8
19  21  8
20  22  8
8  11  8
8  13  8
9  12  8
9  14  8

$$$$
4034
  -OEChem-08112611012D

 55 58  0     1  0  0  0  0  0999 V2000
    2.0000   -4.0000    0.0000 Cl  0  0  0  0  0  0  0  0  0  0  0  0
    5.4641   -1.0000    0.0000 N   0  0  0  0  0  0  0  0  0  0  0  0
    5.4641    1.0000    0.0000 N   0  0  0  0  0  0  0  0  0  0  0  0
    4.5981   -0.5000    0.0000 C   0  0  0  0  0  0  0  0  0  0  0  0
    6.3301   -0.5000    0.0000 C   0  0  0  0  0  0  0  0  0  0  0  0
    4.5981    0.5000    0.0000 C   0  0  0  0  0  0  0  0  0  0  0  0
    6.3301    0.5000    0.0000 C   0  0  0  0  0  0  0  0  0  0  0  0
    5.4641   -2.0000    0.0000 C   0  0  3  0  0  0  0  0  0  0  0  0
    5.4641    2.0000    0.0000 C   0  0  0  0  0  0  0  0  0  0  0  0
    4.5981   -2.5000    0.0000 C   0  0  0  0  0  0  0  0  0  0  0  0
    6.3301   -2.5000    0.0000 C   0  0  0  0  0  0  0  0  0  0  0  0
    6.3301    2.5000    0.0000 C   0  0  0  0  0  0  0  0  0  0  0  0
    3.7321   -2.0000    0.0000 C   0  0  0  0  0  0  0  0  0  0  0  0
    4.5981   -3.5000    0.0000 C   0  0  0  0  0  0  0  0  0  0  0  0
    6.3301   -3.5000    0.0000 C   0  0  0  0  0  0  0  0  0  0  0  0
    7.1962   -2.0000    0.0000 C   0  0  0  0  0  0  0  0  0  0  0  0
    7.1962    2.0000    0.0000 C   0  0  0  0  0  0  0  0  0  0  0  0
    6.3301    3.5000    0.0000 C   0  0  0  0  0  0  0  0  0  0  0  0
    2.8660   -2.5000    0.0000 C   0  0  0  0  0  0  0  0  0  0  0  0
    3.7321   -4.0000    0.0000 C   0  0  0  0  0  0  0  0  0  0  0  0
    7.1962   -4.0000    0.0000 C   0  0  0  0  0  0  0  0  0  0  0  0
    8.0622   -2.5000    0.0000 C   0  0  0  0  0  0  0  0  0  0  0  0
    8.0622    2.5000    0.0000 C   0  0  0  0  0  0  0  0  0  0  0  0
    2.8660   -3.5000    0.0000 C   0  0  0  0  0  0  0  0  0  0  0  0
    8.0622   -3.5000    0.0000 C   0  0  0  0  0  0  0  0  0  0  0  0
    7.1962    4.0000    0.0000 C   0  0  0  0  0  0  0  0  0  0  0  0
    8.0622    3.5000    0.0000 C   0  0  0  0  0  0  0  0  0  0  0  0
    8.9282    2.0000    0.0000 C   0  0  0  0  0  0  0  0  0  0  0  0
    3.9875   -0.3923    0.0000 H   0  0  0  0  0  0  0  0  0  0  0  0
    4.3860   -1.0826    0.0000 H   0  0  0  0  0  0  0  0  0  0  0  0
    6.5422   -1.0826    0.0000 H   0  0  0  0  0  0  0  0  0  0  0  0
    6.9407   -0.3923    0.0000 H   0  0  0  0  0  0  0  0  0  0  0  0
    4.3860    1.0826    0.0000 H   0  0  0  0  0  0  0  0  0  0  0  0
    3.9875    0.3923    0.0000 H   0  0  0  0  0  0  0  0  0  0  0  0
    6.9407    0.3923    0.0000 H   0  0  0  0  0  0  0  0  0  0  0  0
    6.5422    1.0826    0.0000 H   0  0  0  0  0  0  0  0  0  0  0  0
    5.4641   -2.6200    0.0000 H   0  0  0  0  0  0  0  0  0  0  0  0
    5.2521    2.5826    0.0000 H   0  0  0  0  0  0  0  0  0  0  0  0
    4.8535    1.8923    0.0000 H   0  0  0  0  0  0  0  0  0  0  0  0
    3.7321   -1.3800    0.0000 H   0  0  0  0  0  0  0  0  0  0  0  0
    5.1350   -3.8100    0.0000 H   0  0  0  0  0  0  0  0  0  0  0  0
    5.7932   -3.8100    0.0000 H   0  0  0  0  0  0  0  0  0  0  0  0
    7.1962   -1.3800    0.0000 H   0  0  0  0  0  0  0  0  0  0  0  0
    7.1962    1.3800    0.0000 H   0  0  0  0  0  0  0  0  0  0  0  0
    5.7932    3.8100    0.0000 H   0  0  0  0  0  0  0  0  0  0  0  0
    2.3291   -2.1900    0.0000 H   0  0  0  0  0  0  0  0  0  0  0  0
    3.7321   -4.6200    0.0000 H   0  0  0  0  0  0  0  0  0  0  0  0
    7.1962   -4.6200    0.0000 H   0  0  0  0  0  0  0  0  0  0  0  0
    8.5991   -2.1900    0.0000 H   0  0  0  0  0  0  0  0  0  0  0  0
    8.5991   -3.8100    0.0000 H   0  0  0  0  0  0  0  0  0  0  0  0
    7.1962    4.6200    0.0000 H   0  0  0  0  0  0  0  0  0  0  0  0
    8.5991    3.8100    0.0000 H   0  0  0  0  0  0  0  0  0  0  0  0
    8.6182    1.4631    0.0000 H   0  0  0  0  0  0  0  0  0  0  0  0
    9.4651    1.6900    0.0000 H   0  0  0  0  0  0  0  0  0  0  0  0
    9.2382    2.5369    0.0000 H   0  0  0  0  0  0  0  0  0  0  0  0
  1 24  1  0  0  0  0
  2  4  1  0  0  0  0
  2  5  1  0  0  0  0
  2  8  1  0  0  0  0
  3  6  1  0  0  0  0
  3  7  1  0  0  0  0
  3  9  1  0  0  0  0
  4  6  1  0  0  0  0
  4 29  1  0  0  0  0
  4 30  1  0  0  0  0
  5  7  1  0  0  0  0
  5 31  1  0  0  0  0
  5 32  1  0  0  0  0
  6 33  1  0  0  0  0
  6 34  1  0  0  0  0
  7 35  1  0  0  0  0
  7 36  1  0  0  0  0
  8 10  1  0  0  0  0
  8 11  1  0  0  0  0
  8 37  1  0  0  0  0
  9 12  1  0  0  0  0
  9 38  1  0  0  0  0
  9 39  1  0  0  0  0
 10 13  2  0  0  0  0
 10 14  1  0  0  0  0
 11 15  2  0  0  0  0
 11 16  1  0  0  0  0
 12 17  1  0  0  0  0
 12 18  2  0  0  0  0
 13 19  1  0  0  0  0
 13 40  1  0  0  0  0
 14 20  2  0  0  0  0
 14 41  1  0  0  0  0
 15 21  1  0  0  0  0
 15 42  1  0  0  0  0
 16 22  2  0  0  0  0
 16 43  1  0  0  0  0
 17 23  2  0  0  0  0
 17 44  1  0  0  0  0
 18 26  1  0  0  0  0
 18 45  1  0  0  0  0
 19 24  2  0  0  0  0
 19 46  1  0  0  0  0
 20 24  1  0  0  0  0
 20 47  1  0  0  0  0
 21 25  2  0  0  0  0
 21 48  1  0  0  0  0
 22 25  1  0  0  0  0
 22 49  1  0  0  0  0
 23 27  1  0  0  0  0
 23 28  1  0  0  0  0
 25 50  1  0  0  0  0
 26 27  2  0  0  0  0
 26 51  1  0  0  0  0
 27 52  1  0  0  0  0
 28 53  1  0  0  0  0
 28 54  1  0  0  0  0
 28 55  1  0  0  0  0
M  END
> <PUBCHEM_COMPOUND_CID>
4034

> <PUBCHEM_COMPOUND_CANONICALIZED>
1

> <PUBCHEM_CACTVS_COMPLEXITY>
447

> <PUBCHEM_CACTVS_HBOND_ACCEPTOR>
2

> <PUBCHEM_CACTVS_HBOND_DONOR>
0

> <PUBCHEM_CACTVS_ROTATABLE_BOND>
5

> <PUBCHEM_CACTVS_SUBSKEYS>
AAADceB7AAAEAAAAAAAAAAAAAAAAAAAAAAA8YMEAAAAAAAABUAAAHAIAAAAADCrBGCQyAIMAAACAAiBCAACCAAAgBQAIiAAIBogIYCKBkxGUIAhggACIiAcQgMAOBAACAAAAAAAIAAQAAAAAAAAAAAAAAA==

> <PUBCHEM_IUPAC_OPENEYE_NAME>
1-[(4-chlorophenyl)-phenyl-methyl]-4-(m-tolylmethyl)piperazine

> <PUBCHEM_IUPAC_CAS_NAME>
1-[(4-chlorophenyl)-phenylmethyl]-4-[(3-methylphenyl)methyl]piperazine

> <PUBCHEM_IUPAC_NAME_MARKUP>
1-[(4-chlorophenyl)-phenylmethyl]-4-[(3-methylphenyl)methyl]piperazine

> <PUBCHEM_IUPAC_NAME>
1-[(4-chlorophenyl)-phenylmethyl]-4-[(3-methylphenyl)methyl]piperazine

> <PUBCHEM_IUPAC_SYSTEMATIC_NAME>
1-[(4-chlorophenyl)-phenyl-methyl]-4-[(3-methylphenyl)methyl]piperazine

> <PUBCHEM_IUPAC_TRADITIONAL_NAME>
1-[(4-chlorophenyl)-phenyl-methyl]-4-(3-methylbenzyl)piperazine

> <PUBCHEM_IUPAC_INCHI>
InChI=1S/C25H27ClN2/c1-20-6-5-7-21(18-20)19-27-14-16-28(17-15-27)25(22-8-3-2-4-9-22)23-10-12-24(26)13-11-23/h2-13,18,25H,14-17,19H2,1H3

> <PUBCHEM_IUPAC_INCHIKEY>
OCJYIGYOJCODJL-UHFFFAOYSA-N

> <PUBCHEM_XLOGP3_AA>
5.8

> <PUBCHEM_EXACT_MASS>
390.1862766

> <PUBCHEM_MOLECULAR_FORMULA>
C25H27ClN2

> <PUBCHEM_MOLECULAR_WEIGHT>
390.9

> <PUBCHEM_SMILES>
CC1=CC(=CC=C1)CN2CCN(CC2)C(C3=CC=CC=C3)C4=CC=C(C=C4)Cl

> <PUBCHEM_CONNECTIVITY_SMILES>
CC1=CC(=CC=C1)CN2CCN(CC2)C(C3=CC=CC=C3)C4=CC=C(C=C4)Cl

> <PUBCHEM_CACTVS_TPSA>
6.5

> <PUBCHEM_MONOISOTOPIC_WEIGHT>
390.1862766

> <PUBCHEM_TOTAL_CHARGE>
0

> <PUBCHEM_HEAVY_ATOM_COUNT>
28

> <PUBCHEM_ATOM_DEF_STEREO_COUNT>
0

> <PUBCHEM_ATOM_UDEF_STEREO_COUNT>
1

> <PUBCHEM_BOND_DEF_STEREO_COUNT>
0

> <PUBCHEM_BOND_UDEF_STEREO_COUNT>
0

> <PUBCHEM_ISOTOPIC_ATOM_COUNT>
0

> <PUBCHEM_COMPONENT_COUNT>
1

> <PUBCHEM_CACTVS_TAUTO_COUNT>
-1

> <PUBCHEM_COORDINATE_TYPE>
1
5
255

> <PUBCHEM_BONDANNOTATIONS>
10  13  8
10  14  8
11  15  8
11  16  8
12  17  8
12  18  8
13  19  8
14  20  8
15  21  8
16  22  8
17  23  8
18  26  8
19  24  8
20  24  8
21  25  8
22  25  8
23  27  8
26  27  8
8  11  3

$$$$
10660
  -OEChem-08112611012D

 61 63  0     0  0  0  0  0  0999 V2000
    5.9674    2.6200    0.0000 Cl  0  0  0  0  0  0  0  0  0  0  0  0
    2.2690   10.7386    0.0000 O   0  0  0  0  0  0  0  0  0  0  0  0
    2.5716    4.6200    0.0000 O   0  0  0  0  0  0  0  0  0  0  0  0
    0.8395    1.6200    0.0000 O   0  0  0  0  0  0  0  0  0  0  0  0
    1.4030   13.2386    0.0000 N   0  0  0  0  0  0  0  0  0  0  0  0
    2.5716    1.6200    0.0000 N   0  0  0  0  0  0  0  0  0  0  0  0
    1.7056    3.1200    0.0000 N   0  0  0  0  0  0  0  0  0  0  0  0
    4.3838    3.4247    0.0000 N   0  0  0  0  0  0  0  0  0  0  0  0
    4.3838    1.8153    0.0000 N   0  0  0  0  0  0  0  0  0  0  0  0
    3.1350   10.2386    0.0000 C   0  0  0  0  0  0  0  0  0  0  0  0
    3.1350    9.2387    0.0000 C   0  0  0  0  0  0  0  0  0  0  0  0
    4.0010   10.7386    0.0000 C   0  0  0  0  0  0  0  0  0  0  0  0
    2.2690   11.7386    0.0000 C   0  0  0  0  0  0  0  0  0  0  0  0
    1.4030   12.2386    0.0000 C   0  0  0  0  0  0  0  0  0  0  0  0
    3.4376    2.1200    0.0000 C   0  0  0  0  0  0  0  0  0  0  0  0
    3.4376    3.1200    0.0000 C   0  0  0  0  0  0  0  0  0  0  0  0
    2.2690    8.7387    0.0000 C   0  0  0  0  0  0  0  0  0  0  0  0
    4.0010   11.7386    0.0000 C   0  0  0  0  0  0  0  0  0  0  0  0
    4.0010    8.7387    0.0000 C   0  0  0  0  0  0  0  0  0  0  0  0
    4.8671   10.2386    0.0000 C   0  0  0  0  0  0  0  0  0  0  0  0
    2.5716    3.6200    0.0000 C   0  0  0  0  0  0  0  0  0  0  0  0
    1.7056    2.1200    0.0000 C   0  0  0  0  0  0  0  0  0  0  0  0
    2.5716    0.6200    0.0000 C   0  0  0  0  0  0  0  0  0  0  0  0
    0.5369   13.7386    0.0000 C   0  0  0  0  0  0  0  0  0  0  0  0
    2.2690   13.7386    0.0000 C   0  0  0  0  0  0  0  0  0  0  0  0
    2.2690    7.7387    0.0000 C   0  0  0  0  0  0  0  0  0  0  0  0
    4.8671   12.2386    0.0000 C   0  0  0  0  0  0  0  0  0  0  0  0
    4.0010    7.7387    0.0000 C   0  0  0  0  0  0  0  0  0  0  0  0
    5.7331   10.7386    0.0000 C   0  0  0  0  0  0  0  0  0  0  0  0
    0.8395    3.6200    0.0000 C   0  0  0  0  0  0  0  0  0  0  0  0
    4.9674    2.6200    0.0000 C   0  0  0  0  0  0  0  0  0  0  0  0
    3.1350    7.2387    0.0000 C   0  0  0  0  0  0  0  0  0  0  0  0
    5.7331   11.7386    0.0000 C   0  0  0  0  0  0  0  0  0  0  0  0
    3.1350   10.8586    0.0000 H   0  0  0  0  0  0  0  0  0  0  0  0
    2.8796   11.6310    0.0000 H   0  0  0  0  0  0  0  0  0  0  0  0
    2.4810   12.3213    0.0000 H   0  0  0  0  0  0  0  0  0  0  0  0
    0.7924   12.3463    0.0000 H   0  0  0  0  0  0  0  0  0  0  0  0
    1.1909   11.6560    0.0000 H   0  0  0  0  0  0  0  0  0  0  0  0
    1.7321    9.0487    0.0000 H   0  0  0  0  0  0  0  0  0  0  0  0
    3.4641   12.0486    0.0000 H   0  0  0  0  0  0  0  0  0  0  0  0
    4.5380    9.0487    0.0000 H   0  0  0  0  0  0  0  0  0  0  0  0
    4.8671    9.6187    0.0000 H   0  0  0  0  0  0  0  0  0  0  0  0
    4.5764    4.0141    0.0000 H   0  0  0  0  0  0  0  0  0  0  0  0
    1.9516    0.6200    0.0000 H   0  0  0  0  0  0  0  0  0  0  0  0
    2.5716    0.0000    0.0000 H   0  0  0  0  0  0  0  0  0  0  0  0
    3.1916    0.6200    0.0000 H   0  0  0  0  0  0  0  0  0  0  0  0
    0.8469   14.2756    0.0000 H   0  0  0  0  0  0  0  0  0  0  0  0
    0.0000   14.0486    0.0000 H   0  0  0  0  0  0  0  0  0  0  0  0
    0.2269   13.2017    0.0000 H   0  0  0  0  0  0  0  0  0  0  0  0
    2.5790   13.2017    0.0000 H   0  0  0  0  0  0  0  0  0  0  0  0
    2.8059   14.0486    0.0000 H   0  0  0  0  0  0  0  0  0  0  0  0
    1.9590   14.2756    0.0000 H   0  0  0  0  0  0  0  0  0  0  0  0
    1.7321    7.4287    0.0000 H   0  0  0  0  0  0  0  0  0  0  0  0
    4.8671   12.8586    0.0000 H   0  0  0  0  0  0  0  0  0  0  0  0
    4.5380    7.4287    0.0000 H   0  0  0  0  0  0  0  0  0  0  0  0
    6.2700   10.4286    0.0000 H   0  0  0  0  0  0  0  0  0  0  0  0
    1.1495    4.1569    0.0000 H   0  0  0  0  0  0  0  0  0  0  0  0
    0.3026    3.9300    0.0000 H   0  0  0  0  0  0  0  0  0  0  0  0
    0.5295    3.0831    0.0000 H   0  0  0  0  0  0  0  0  0  0  0  0
    3.1350    6.6187    0.0000 H   0  0  0  0  0  0  0  0  0  0  0  0
    6.2700   12.0486    0.0000 H   0  0  0  0  0  0  0  0  0  0  0  0
  1 31  1  0  0  0  0
  2 10  1  0  0  0  0
  2 13  1  0  0  0  0
  3 21  2  0  0  0  0
  4 22  2  0  0  0  0
  5 14  1  0  0  0  0
  5 24  1  0  0  0  0
  5 25  1  0  0  0  0
  6 15  1  0  0  0  0
  6 22  1  0  0  0  0
  6 23  1  0  0  0  0
  7 21  1  0  0  0  0
  7 22  1  0  0  0  0
  7 30  1  0  0  0  0
  8 16  1  0  0  0  0
  8 31  1  0  0  0  0
  8 43  1  0  0  0  0
  9 15  1  0  0  0  0
  9 31  2  0  0  0  0
 10 11  1  0  0  0  0
 10 12  1  0  0  0  0
 10 34  1  0  0  0  0
 11 17  2  0  0  0  0
 11 19  1  0  0  0  0
 12 18  2  0  0  0  0
 12 20  1  0  0  0  0
 13 14  1  0  0  0  0
 13 35  1  0  0  0  0
 13 36  1  0  0  0  0
 14 37  1  0  0  0  0
 14 38  1  0  0  0  0
 15 16  2  0  0  0  0
 16 21  1  0  0  0  0
 17 26  1  0  0  0  0
 17 39  1  0  0  0  0
 18 27  1  0  0  0  0
 18 40  1  0  0  0  0
 19 28  2  0  0  0  0
 19 41  1  0  0  0  0
 20 29  2  0  0  0  0
 20 42  1  0  0  0  0
 23 44  1  0  0  0  0
 23 45  1  0  0  0  0
 23 46  1  0  0  0  0
 24 47  1  0  0  0  0
 24 48  1  0  0  0  0
 24 49  1  0  0  0  0
 25 50  1  0  0  0  0
 25 51  1  0  0  0  0
 25 52  1  0  0  0  0
 26 32  2  0  0  0  0
 26 53  1  0  0  0  0
 27 33  2  0  0  0  0
 27 54  1  0  0  0  0
 28 32  1  0  0  0  0
 28 55  1  0  0  0  0
 29 33  1  0  0  0  0
 29 56  1  0  0  0  0
 30 57  1  0  0  0  0
 30 58  1  0  0  0  0
 30 59  1  0  0  0  0
 32 60  1  0  0  0  0
 33 61  1  0  0  0  0
M  END
> <PUBCHEM_COMPOUND_CID>
10660

> <PUBCHEM_COMPOUND_CANONICALIZED>
1

> <PUBCHEM_CACTVS_COMPLEXITY>
509

> <PUBCHEM_CACTVS_HBOND_ACCEPTOR>
5

> <PUBCHEM_CACTVS_HBOND_DONOR>
1

> <PUBCHEM_CACTVS_ROTATABLE_BOND>
6

> <PUBCHEM_CACTVS_SUBSKEYS>
AAADceB7sAAEAAAAAAAAAAAAAAAAAWAAAAA8YIAAAAAAAFgB0AAAHgIQAAAADBzhngYzsJfJlACoAydydACCgC2nEKAJmQGoXMiKbirAeTiXMIgsxyNYqGeAwOAOAAAAAAAAAAAAAAAAAAAAAAAAAAAAAA==

> <PUBCHEM_IUPAC_OPENEYE_NAME>
2-benzhydryloxy-N,N-dimethyl-ethanamine;8-chloro-1,3-dimethyl-7H-purine-2,6-dione

> <PUBCHEM_IUPAC_CAS_NAME>
8-chloro-1,3-dimethyl-7H-purine-2,6-dione;2-(diphenylmethyl)oxy-N,N-dimethylethanamine

> <PUBCHEM_IUPAC_NAME_MARKUP>
2-benzhydryloxy-<I>N</I>,<I>N</I>-dimethylethanamine;8-chloro-1,3-dimethyl-7<I>H</I>-purine-2,6-dione

> <PUBCHEM_IUPAC_NAME>
2-benzhydryloxy-N,N-dimethylethanamine;8-chloro-1,3-dimethyl-7H-purine-2,6-dione

> <PUBCHEM_IUPAC_SYSTEMATIC_NAME>
8-chloranyl-1,3-dimethyl-7H-purine-2,6-dione;2-(diphenylmethyl)oxy-N,N-dimethyl-ethanamine

> <PUBCHEM_IUPAC_TRADITIONAL_NAME>
2-benzhydryloxyethyl(dimethyl)amine;8-chloro-1,3-dimethyl-7H-purine-2,6-quinone

> <PUBCHEM_IUPAC_INCHI>
InChI=1S/C17H21NO.C7H7ClN4O2/c1-18(2)13-14-19-17(15-9-5-3-6-10-15)16-11-7-4-8-12-16;1-11-4-3(9-6(8)10-4)5(13)12(2)7(11)14/h3-12,17H,13-14H2,1-2H3;1-2H3,(H,9,10)

> <PUBCHEM_IUPAC_INCHIKEY>
NFLLKCVHYJRNRH-UHFFFAOYSA-N

> <PUBCHEM_EXACT_MASS>
469.1880675

> <PUBCHEM_MOLECULAR_FORMULA>
C24H28ClN5O3

> <PUBCHEM_MOLECULAR_WEIGHT>
470.0

> <PUBCHEM_SMILES>
CN1C2=C(C(=O)N(C1=O)C)NC(=N2)Cl.CN(C)CCOC(C1=CC=CC=C1)C2=CC=CC=C2

> <PUBCHEM_CONNECTIVITY_SMILES>
CN1C2=C(C(=O)N(C1=O)C)NC(=N2)Cl.CN(C)CCOC(C1=CC=CC=C1)C2=CC=CC=C2

> <PUBCHEM_CACTVS_TPSA>
81.8

> <PUBCHEM_MONOISOTOPIC_WEIGHT>
469.1880675

> <PUBCHEM_TOTAL_CHARGE>
0

> <PUBCHEM_HEAVY_ATOM_COUNT>
33

> <PUBCHEM_ATOM_DEF_STEREO_COUNT>
0

> <PUBCHEM_ATOM_UDEF_STEREO_COUNT>
0

> <PUBCHEM_BOND_DEF_STEREO_COUNT>
0

> <PUBCHEM_BOND_UDEF_STEREO_COUNT>
0

> <PUBCHEM_ISOTOPIC_ATOM_COUNT>
0

> <PUBCHEM_COMPONENT_COUNT>
2

> <PUBCHEM_CACTVS_TAUTO_COUNT>
-1

> <PUBCHEM_COORDINATE_TYPE>
1
5
255

> <PUBCHEM_BONDANNOTATIONS>
11  17  8
11  19  8
12  18  8
12  20  8
15  16  8
16  21  8
17  26  8
18  27  8
19  28  8
20  29  8
26  32  8
27  33  8
28  32  8
29  33  8
6  15  8
6  22  8
7  21  8
7  22  8
8  16  8
8  31  8
9  15  8
9  31  8

$$$$
5282443
  -OEChem-08112611012D

 43 45  0     0  0  0  0  0  0999 V2000
    3.5827    1.5000    0.0000 N   0  0  0  0  0  0  0  0  0  0  0  0
    7.0468    2.5000    0.0000 N   0  0  0  0  0  0  0  0  0  0  0  0
    3.4782    2.4945    0.0000 C   0  0  0  0  0  0  0  0  0  0  0  0
    2.6691    1.0933    0.0000 C   0  0  0  0  0  0  0  0  0  0  0  0
    2.5000    2.7024    0.0000 C   0  0  0  0  0  0  0  0  0  0  0  0
    2.0000    1.8364    0.0000 C   0  0  0  0  0  0  0  0  0  0  0  0
    4.4487    1.0000    0.0000 C   0  0  0  0  0  0  0  0  0  0  0  0
    5.3147    1.5000    0.0000 C   0  0  0  0  0  0  0  0  0  0  0  0
    6.1808    1.0000    0.0000 C   0  0  0  0  0  0  0  0  0  0  0  0
    6.1808   -0.0000    0.0000 C   0  0  0  0  0  0  0  0  0  0  0  0
    7.0468    1.5000    0.0000 C   0  0  0  0  0  0  0  0  0  0  0  0
    5.3147   -0.5000    0.0000 C   0  0  0  0  0  0  0  0  0  0  0  0
    7.0468   -0.5000    0.0000 C   0  0  0  0  0  0  0  0  0  0  0  0
    7.9128    1.0000    0.0000 C   0  0  0  0  0  0  0  0  0  0  0  0
    6.1808   -2.0000    0.0000 C   0  0  0  0  0  0  0  0  0  0  0  0
    5.3147   -1.5000    0.0000 C   0  0  0  0  0  0  0  0  0  0  0  0
    7.0468   -1.5000    0.0000 C   0  0  0  0  0  0  0  0  0  0  0  0
    8.7788    1.5000    0.0000 C   0  0  0  0  0  0  0  0  0  0  0  0
    6.1808   -3.0000    0.0000 C   0  0  0  0  0  0  0  0  0  0  0  0
    7.9128    3.0000    0.0000 C   0  0  0  0  0  0  0  0  0  0  0  0
    8.7788    2.5000    0.0000 C   0  0  0  0  0  0  0  0  0  0  0  0
    4.0982    2.4945    0.0000 H   0  0  0  0  0  0  0  0  0  0  0  0
    3.5430    3.1111    0.0000 H   0  0  0  0  0  0  0  0  0  0  0  0
    2.1675    0.7288    0.0000 H   0  0  0  0  0  0  0  0  0  0  0  0
    2.9791    0.5563    0.0000 H   0  0  0  0  0  0  0  0  0  0  0  0
    2.6916    3.2921    0.0000 H   0  0  0  0  0  0  0  0  0  0  0  0
    1.9336    2.9546    0.0000 H   0  0  0  0  0  0  0  0  0  0  0  0
    1.4984    2.2008    0.0000 H   0  0  0  0  0  0  0  0  0  0  0  0
    1.5851    1.3757    0.0000 H   0  0  0  0  0  0  0  0  0  0  0  0
    4.0502    0.5251    0.0000 H   0  0  0  0  0  0  0  0  0  0  0  0
    4.8472    0.5251    0.0000 H   0  0  0  0  0  0  0  0  0  0  0  0
    5.3147    2.1200    0.0000 H   0  0  0  0  0  0  0  0  0  0  0  0
    4.7778   -0.1900    0.0000 H   0  0  0  0  0  0  0  0  0  0  0  0
    7.5837   -0.1900    0.0000 H   0  0  0  0  0  0  0  0  0  0  0  0
    7.9128    0.3800    0.0000 H   0  0  0  0  0  0  0  0  0  0  0  0
    4.7778   -1.8100    0.0000 H   0  0  0  0  0  0  0  0  0  0  0  0
    7.5837   -1.8100    0.0000 H   0  0  0  0  0  0  0  0  0  0  0  0
    9.3158    1.1900    0.0000 H   0  0  0  0  0  0  0  0  0  0  0  0
    5.5608   -3.0000    0.0000 H   0  0  0  0  0  0  0  0  0  0  0  0
    6.1808   -3.6200    0.0000 H   0  0  0  0  0  0  0  0  0  0  0  0
    6.8008   -3.0000    0.0000 H   0  0  0  0  0  0  0  0  0  0  0  0
    7.9128    3.6200    0.0000 H   0  0  0  0  0  0  0  0  0  0  0  0
    9.3158    2.8100    0.0000 H   0  0  0  0  0  0  0  0  0  0  0  0
  1  3  1  0  0  0  0
  1  4  1  0  0  0  0
  1  7  1  0  0  0  0
  2 11  1  0  0  0  0
  2 20  2  0  0  0  0
  3  5  1  0  0  0  0
  3 22  1  0  0  0  0
  3 23  1  0  0  0  0
  4  6  1  0  0  0  0
  4 24  1  0  0  0  0
  4 25  1  0  0  0  0
  5  6  1  0  0  0  0
  5 26  1  0  0  0  0
  5 27  1  0  0  0  0
  6 28  1  0  0  0  0
  6 29  1  0  0  0  0
  7  8  1  0  0  0  0
  7 30  1  0  0  0  0
  7 31  1  0  0  0  0
  8  9  2  0  0  0  0
  8 32  1  0  0  0  0
  9 10  1  0  0  0  0
  9 11  1  0  0  0  0
 10 12  2  0  0  0  0
 10 13  1  0  0  0  0
 11 14  2  0  0  0  0
 12 16  1  0  0  0  0
 12 33  1  0  0  0  0
 13 17  2  0  0  0  0
 13 34  1  0  0  0  0
 14 18  1  0  0  0  0
 14 35  1  0  0  0  0
 15 16  2  0  0  0  0
 15 17  1  0  0  0  0
 15 19  1  0  0  0  0
 16 36  1  0  0  0  0
 17 37  1  0  0  0  0
 18 21  2  0  0  0  0
 18 38  1  0  0  0  0
 19 39  1  0  0  0  0
 19 40  1  0  0  0  0
 19 41  1  0  0  0  0
 20 21  1  0  0  0  0
 20 42  1  0  0  0  0
 21 43  1  0  0  0  0
M  END
> <PUBCHEM_COMPOUND_CID>
5282443

> <PUBCHEM_COMPOUND_CANONICALIZED>
1

> <PUBCHEM_CACTVS_COMPLEXITY>
335

> <PUBCHEM_CACTVS_HBOND_ACCEPTOR>
2

> <PUBCHEM_CACTVS_HBOND_DONOR>
0

> <PUBCHEM_CACTVS_ROTATABLE_BOND>
4

> <PUBCHEM_CACTVS_SUBSKEYS>
AAADceB7AAAAAAAAAAAAAAAAAAAAAWAAAAA8QAAAAAAAAAABwAAAHAAAAAAADAjBHgQ+gJMIEACgAzRnRACCgCAxAiAI2CA4ZJgIIOLAkZGEIAhggADIyAcQgMAOQAAAAAAAAACAAAAAAAAAAAAAAAAAAA==

> <PUBCHEM_IUPAC_OPENEYE_NAME>
2-[(E)-1-(p-tolyl)-3-pyrrolidin-1-yl-prop-1-enyl]pyridine

> <PUBCHEM_IUPAC_CAS_NAME>
2-[(E)-1-(4-methylphenyl)-3-(1-pyrrolidinyl)prop-1-enyl]pyridine

> <PUBCHEM_IUPAC_NAME_MARKUP>
2-[(<I>E</I>)-1-(4-methylphenyl)-3-pyrrolidin-1-ylprop-1-enyl]pyridine

> <PUBCHEM_IUPAC_NAME>
2-[(E)-1-(4-methylphenyl)-3-pyrrolidin-1-ylprop-1-enyl]pyridine

> <PUBCHEM_IUPAC_SYSTEMATIC_NAME>
2-[(E)-1-(4-methylphenyl)-3-pyrrolidin-1-yl-prop-1-enyl]pyridine

> <PUBCHEM_IUPAC_TRADITIONAL_NAME>
2-[(E)-1-(p-tolyl)-3-pyrrolidino-prop-1-enyl]pyridine

> <PUBCHEM_IUPAC_INCHI>
InChI=1S/C19H22N2/c1-16-7-9-17(10-8-16)18(19-6-2-3-12-20-19)11-15-21-13-4-5-14-21/h2-3,6-12H,4-5,13-15H2,1H3/b18-11+

> <PUBCHEM_IUPAC_INCHIKEY>
CBEQULMOCCWAQT-WOJGMQOQSA-N

> <PUBCHEM_XLOGP3>
3.9

> <PUBCHEM_EXACT_MASS>
278.178298710

> <PUBCHEM_MOLECULAR_FORMULA>
C19H22N2

> <PUBCHEM_MOLECULAR_WEIGHT>
278.4

> <PUBCHEM_SMILES>
CC1=CC=C(C=C1)/C(=C\CN2CCCC2)/C3=CC=CC=N3

> <PUBCHEM_CONNECTIVITY_SMILES>
CC1=CC=C(C=C1)C(=CCN2CCCC2)C3=CC=CC=N3

> <PUBCHEM_CACTVS_TPSA>
16.1

> <PUBCHEM_MONOISOTOPIC_WEIGHT>
278.178298710

> <PUBCHEM_TOTAL_CHARGE>
0

> <PUBCHEM_HEAVY_ATOM_COUNT>
21

> <PUBCHEM_ATOM_DEF_STEREO_COUNT>
0

> <PUBCHEM_ATOM_UDEF_STEREO_COUNT>
0

> <PUBCHEM_BOND_DEF_STEREO_COUNT>
1

> <PUBCHEM_BOND_UDEF_STEREO_COUNT>
0

> <PUBCHEM_ISOTOPIC_ATOM_COUNT>
0

> <PUBCHEM_COMPONENT_COUNT>
1

> <PUBCHEM_CACTVS_TAUTO_COUNT>
-1

> <PUBCHEM_COORDINATE_TYPE>
1
5
255

> <PUBCHEM_BONDANNOTATIONS>
10  12  8
10  13  8
11  14  8
12  16  8
13  17  8
14  18  8
15  16  8
15  17  8
18  21  8
2  11  8
2  20  8
20  21  8

$$$$
6834
  -OEChem-08112611012D

 38 39  0     1  0  0  0  0  0999 V2000
    4.5981   -3.5000    0.0000 Br  0  0  0  0  0  0  0  0  0  0  0  0
    2.8660    2.5000    0.0000 N   0  0  0  0  0  0  0  0  0  0  0  0
    6.3301    0.5000    0.0000 N   0  0  0  0  0  0  0  0  0  0  0  0
    4.5981    0.5000    0.0000 C   0  0  3  0  0  0  0  0  0  0  0  0
    3.7321    1.0000    0.0000 C   0  0  0  0  0  0  0  0  0  0  0  0
    3.7321    2.0000    0.0000 C   0  0  0  0  0  0  0  0  0  0  0  0
    4.5981   -0.5000    0.0000 C   0  0  0  0  0  0  0  0  0  0  0  0
    5.4641    1.0000    0.0000 C   0  0  0  0  0  0  0  0  0  0  0  0
    3.7321   -1.0000    0.0000 C   0  0  0  0  0  0  0  0  0  0  0  0
    5.4641   -1.0000    0.0000 C   0  0  0  0  0  0  0  0  0  0  0  0
    5.4641    2.0000    0.0000 C   0  0  0  0  0  0  0  0  0  0  0  0
    2.8660    3.5000    0.0000 C   0  0  0  0  0  0  0  0  0  0  0  0
    2.0000    2.0000    0.0000 C   0  0  0  0  0  0  0  0  0  0  0  0
    3.7321   -2.0000    0.0000 C   0  0  0  0  0  0  0  0  0  0  0  0
    5.4641   -2.0000    0.0000 C   0  0  0  0  0  0  0  0  0  0  0  0
    6.3301    2.5000    0.0000 C   0  0  0  0  0  0  0  0  0  0  0  0
    4.5981   -2.5000    0.0000 C   0  0  0  0  0  0  0  0  0  0  0  0
    7.1962    1.0000    0.0000 C   0  0  0  0  0  0  0  0  0  0  0  0
    7.1962    2.0000    0.0000 C   0  0  0  0  0  0  0  0  0  0  0  0
    4.5981    1.1200    0.0000 H   0  0  0  0  0  0  0  0  0  0  0  0
    3.1215    1.1077    0.0000 H   0  0  0  0  0  0  0  0  0  0  0  0
    3.5200    0.4174    0.0000 H   0  0  0  0  0  0  0  0  0  0  0  0
    4.3426    1.8923    0.0000 H   0  0  0  0  0  0  0  0  0  0  0  0
    3.9441    2.5826    0.0000 H   0  0  0  0  0  0  0  0  0  0  0  0
    3.1951   -0.6900    0.0000 H   0  0  0  0  0  0  0  0  0  0  0  0
    6.0010   -0.6900    0.0000 H   0  0  0  0  0  0  0  0  0  0  0  0
    4.9272    2.3100    0.0000 H   0  0  0  0  0  0  0  0  0  0  0  0
    3.4860    3.5000    0.0000 H   0  0  0  0  0  0  0  0  0  0  0  0
    2.8660    4.1200    0.0000 H   0  0  0  0  0  0  0  0  0  0  0  0
    2.2460    3.5000    0.0000 H   0  0  0  0  0  0  0  0  0  0  0  0
    1.6900    2.5369    0.0000 H   0  0  0  0  0  0  0  0  0  0  0  0
    1.4631    1.6900    0.0000 H   0  0  0  0  0  0  0  0  0  0  0  0
    2.3100    1.4631    0.0000 H   0  0  0  0  0  0  0  0  0  0  0  0
    3.1951   -2.3100    0.0000 H   0  0  0  0  0  0  0  0  0  0  0  0
    6.0010   -2.3100    0.0000 H   0  0  0  0  0  0  0  0  0  0  0  0
    6.3301    3.1200    0.0000 H   0  0  0  0  0  0  0  0  0  0  0  0
    7.7331    0.6900    0.0000 H   0  0  0  0  0  0  0  0  0  0  0  0
    7.7331    2.3100    0.0000 H   0  0  0  0  0  0  0  0  0  0  0  0
  1 17  1  0  0  0  0
  2  6  1  0  0  0  0
  2 12  1  0  0  0  0
  2 13  1  0  0  0  0
  3  8  1  0  0  0  0
  3 18  2  0  0  0  0
  4  5  1  0  0  0  0
  4  7  1  0  0  0  0
  4  8  1  0  0  0  0
  4 20  1  0  0  0  0
  5  6  1  0  0  0  0
  5 21  1  0  0  0  0
  5 22  1  0  0  0  0
  6 23  1  0  0  0  0
  6 24  1  0  0  0  0
  7  9  2  0  0  0  0
  7 10  1  0  0  0  0
  8 11  2  0  0  0  0
  9 14  1  0  0  0  0
  9 25  1  0  0  0  0
 10 15  2  0  0  0  0
 10 26  1  0  0  0  0
 11 16  1  0  0  0  0
 11 27  1  0  0  0  0
 12 28  1  0  0  0  0
 12 29  1  0  0  0  0
 12 30  1  0  0  0  0
 13 31  1  0  0  0  0
 13 32  1  0  0  0  0
 13 33  1  0  0  0  0
 14 17  2  0  0  0  0
 14 34  1  0  0  0  0
 15 17  1  0  0  0  0
 15 35  1  0  0  0  0
 16 19  2  0  0  0  0
 16 36  1  0  0  0  0
 18 19  1  0  0  0  0
 18 37  1  0  0  0  0
 19 38  1  0  0  0  0
M  END
> <PUBCHEM_COMPOUND_CID>
6834

> <PUBCHEM_COMPOUND_CANONICALIZED>
1

> <PUBCHEM_CACTVS_COMPLEXITY>
249

> <PUBCHEM_CACTVS_HBOND_ACCEPTOR>
2

> <PUBCHEM_CACTVS_HBOND_DONOR>
0

> <PUBCHEM_CACTVS_ROTATABLE_BOND>
5

> <PUBCHEM_CACTVS_SUBSKEYS>
AAADceB7AAAAEAAAAAAAAAAAAAAAAAAAAAA8QAAAAAAAAAABwAAAHABAAAABrQjBHgQ+gJMIEACgAzRnRACCgCAxAiQI2CA4ZLgIIOLAkZGEIAhggADIyhcQgMAOggAAAAAAAAAEAAAAAAAAAAAAAAAAAA==

> <PUBCHEM_IUPAC_OPENEYE_NAME>
3-(4-bromophenyl)-N,N-dimethyl-3-(2-pyridyl)propan-1-amine

> <PUBCHEM_IUPAC_CAS_NAME>
3-(4-bromophenyl)-N,N-dimethyl-3-(2-pyridinyl)-1-propanamine

> <PUBCHEM_IUPAC_NAME_MARKUP>
3-(4-bromophenyl)-<I>N</I>,<I>N</I>-dimethyl-3-pyridin-2-ylpropan-1-amine

> <PUBCHEM_IUPAC_NAME>
3-(4-bromophenyl)-N,N-dimethyl-3-pyridin-2-ylpropan-1-amine

> <PUBCHEM_IUPAC_SYSTEMATIC_NAME>
3-(4-bromophenyl)-N,N-dimethyl-3-pyridin-2-yl-propan-1-amine

> <PUBCHEM_IUPAC_TRADITIONAL_NAME>
[3-(4-bromophenyl)-3-(2-pyridyl)propyl]-dimethyl-amine

> <PUBCHEM_IUPAC_INCHI>
InChI=1S/C16H19BrN2/c1-19(2)12-10-15(16-5-3-4-11-18-16)13-6-8-14(17)9-7-13/h3-9,11,15H,10,12H2,1-2H3

> <PUBCHEM_IUPAC_INCHIKEY>
ZDIGNSYAACHWNL-UHFFFAOYSA-N

> <PUBCHEM_XLOGP3>
3.5

> <PUBCHEM_EXACT_MASS>
318.07316

> <PUBCHEM_MOLECULAR_FORMULA>
C16H19BrN2

> <PUBCHEM_MOLECULAR_WEIGHT>
319.24

> <PUBCHEM_SMILES>
CN(C)CCC(C1=CC=C(C=C1)Br)C2=CC=CC=N2

> <PUBCHEM_CONNECTIVITY_SMILES>
CN(C)CCC(C1=CC=C(C=C1)Br)C2=CC=CC=N2

> <PUBCHEM_CACTVS_TPSA>
16.1

> <PUBCHEM_MONOISOTOPIC_WEIGHT>
318.07316

> <PUBCHEM_TOTAL_CHARGE>
0

> <PUBCHEM_HEAVY_ATOM_COUNT>
19

> <PUBCHEM_ATOM_DEF_STEREO_COUNT>
0

> <PUBCHEM_ATOM_UDEF_STEREO_COUNT>
1

> <PUBCHEM_BOND_DEF_STEREO_COUNT>
0

> <PUBCHEM_BOND_UDEF_STEREO_COUNT>
0

> <PUBCHEM_ISOTOPIC_ATOM_COUNT>
0

> <PUBCHEM_COMPONENT_COUNT>
1

> <PUBCHEM_CACTVS_TAUTO_COUNT>
-1

> <PUBCHEM_COORDINATE_TYPE>
1
5
255

> <PUBCHEM_BONDANNOTATIONS>
10  15  8
11  16  8
14  17  8
15  17  8
16  19  8
18  19  8
3  18  8
3  8  8
4  5  3
7  10  8
7  9  8
8  11  8
9  14  8

$$$$
2678
  -OEChem-08112611012D

 52 54  0     1  0  0  0  0  0999 V2000
    2.0000   -5.0600    0.0000 Cl  0  0  0  0  0  0  0  0  0  0  0  0
    6.3301    2.4400    0.0000 O   0  0  0  0  0  0  0  0  0  0  0  0
    8.0622    4.4400    0.0000 O   0  0  0  0  0  0  0  0  0  0  0  0
    6.3301    4.4400    0.0000 O   0  0  0  0  0  0  0  0  0  0  0  0
    5.4641   -2.0600    0.0000 N   0  0  0  0  0  0  0  0  0  0  0  0
    5.4641   -0.0600    0.0000 N   0  0  0  0  0  0  0  0  0  0  0  0
    4.5981   -1.5600    0.0000 C   0  0  0  0  0  0  0  0  0  0  0  0
    6.3301   -1.5600    0.0000 C   0  0  0  0  0  0  0  0  0  0  0  0
    4.5981   -0.5600    0.0000 C   0  0  0  0  0  0  0  0  0  0  0  0
    6.3301   -0.5600    0.0000 C   0  0  0  0  0  0  0  0  0  0  0  0
    5.4641   -3.0600    0.0000 C   0  0  3  0  0  0  0  0  0  0  0  0
    5.4641    0.9400    0.0000 C   0  0  0  0  0  0  0  0  0  0  0  0
    4.5981   -3.5600    0.0000 C   0  0  0  0  0  0  0  0  0  0  0  0
    6.3301   -3.5600    0.0000 C   0  0  0  0  0  0  0  0  0  0  0  0
    6.3301    1.4400    0.0000 C   0  0  0  0  0  0  0  0  0  0  0  0
    4.5981   -4.5600    0.0000 C   0  0  0  0  0  0  0  0  0  0  0  0
    3.7321   -3.0600    0.0000 C   0  0  0  0  0  0  0  0  0  0  0  0
    6.3301   -4.5600    0.0000 C   0  0  0  0  0  0  0  0  0  0  0  0
    7.1962   -3.0600    0.0000 C   0  0  0  0  0  0  0  0  0  0  0  0
    3.7321   -5.0600    0.0000 C   0  0  0  0  0  0  0  0  0  0  0  0
    2.8660   -3.5600    0.0000 C   0  0  0  0  0  0  0  0  0  0  0  0
    7.1962   -5.0600    0.0000 C   0  0  0  0  0  0  0  0  0  0  0  0
    8.0622   -3.5600    0.0000 C   0  0  0  0  0  0  0  0  0  0  0  0
    2.8660   -4.5600    0.0000 C   0  0  0  0  0  0  0  0  0  0  0  0
    8.0622   -4.5600    0.0000 C   0  0  0  0  0  0  0  0  0  0  0  0
    7.1962    2.9400    0.0000 C   0  0  0  0  0  0  0  0  0  0  0  0
    7.1962    3.9400    0.0000 C   0  0  0  0  0  0  0  0  0  0  0  0
    3.9875   -1.4523    0.0000 H   0  0  0  0  0  0  0  0  0  0  0  0
    4.3860   -2.1426    0.0000 H   0  0  0  0  0  0  0  0  0  0  0  0
    6.5422   -2.1426    0.0000 H   0  0  0  0  0  0  0  0  0  0  0  0
    6.9407   -1.4523    0.0000 H   0  0  0  0  0  0  0  0  0  0  0  0
    4.3860    0.0226    0.0000 H   0  0  0  0  0  0  0  0  0  0  0  0
    3.9875   -0.6677    0.0000 H   0  0  0  0  0  0  0  0  0  0  0  0
    6.9407   -0.6677    0.0000 H   0  0  0  0  0  0  0  0  0  0  0  0
    6.5422    0.0226    0.0000 H   0  0  0  0  0  0  0  0  0  0  0  0
    5.4641   -3.6800    0.0000 H   0  0  0  0  0  0  0  0  0  0  0  0
    5.2521    1.5226    0.0000 H   0  0  0  0  0  0  0  0  0  0  0  0
    4.8535    0.8323    0.0000 H   0  0  0  0  0  0  0  0  0  0  0  0
    6.5422    0.8574    0.0000 H   0  0  0  0  0  0  0  0  0  0  0  0
    6.9407    1.5477    0.0000 H   0  0  0  0  0  0  0  0  0  0  0  0
    5.1350   -4.8700    0.0000 H   0  0  0  0  0  0  0  0  0  0  0  0
    3.7321   -2.4400    0.0000 H   0  0  0  0  0  0  0  0  0  0  0  0
    5.7932   -4.8700    0.0000 H   0  0  0  0  0  0  0  0  0  0  0  0
    7.1962   -2.4400    0.0000 H   0  0  0  0  0  0  0  0  0  0  0  0
    3.7321   -5.6800    0.0000 H   0  0  0  0  0  0  0  0  0  0  0  0
    2.3291   -3.2500    0.0000 H   0  0  0  0  0  0  0  0  0  0  0  0
    7.1962   -5.6800    0.0000 H   0  0  0  0  0  0  0  0  0  0  0  0
    8.5991   -3.2500    0.0000 H   0  0  0  0  0  0  0  0  0  0  0  0
    8.5991   -4.8700    0.0000 H   0  0  0  0  0  0  0  0  0  0  0  0
    7.4082    2.3574    0.0000 H   0  0  0  0  0  0  0  0  0  0  0  0
    7.8067    3.0477    0.0000 H   0  0  0  0  0  0  0  0  0  0  0  0
    8.0622    5.0600    0.0000 H   0  0  0  0  0  0  0  0  0  0  0  0
  1 24  1  0  0  0  0
  2 15  1  0  0  0  0
  2 26  1  0  0  0  0
  3 27  1  0  0  0  0
  3 52  1  0  0  0  0
  4 27  2  0  0  0  0
  5  7  1  0  0  0  0
  5  8  1  0  0  0  0
  5 11  1  0  0  0  0
  6  9  1  0  0  0  0
  6 10  1  0  0  0  0
  6 12  1  0  0  0  0
  7  9  1  0  0  0  0
  7 28  1  0  0  0  0
  7 29  1  0  0  0  0
  8 10  1  0  0  0  0
  8 30  1  0  0  0  0
  8 31  1  0  0  0  0
  9 32  1  0  0  0  0
  9 33  1  0  0  0  0
 10 34  1  0  0  0  0
 10 35  1  0  0  0  0
 11 13  1  0  0  0  0
 11 14  1  0  0  0  0
 11 36  1  0  0  0  0
 12 15  1  0  0  0  0
 12 37  1  0  0  0  0
 12 38  1  0  0  0  0
 13 16  2  0  0  0  0
 13 17  1  0  0  0  0
 14 18  2  0  0  0  0
 14 19  1  0  0  0  0
 15 39  1  0  0  0  0
 15 40  1  0  0  0  0
 16 20  1  0  0  0  0
 16 41  1  0  0  0  0
 17 21  2  0  0  0  0
 17 42  1  0  0  0  0
 18 22  1  0  0  0  0
 18 43  1  0  0  0  0
 19 23  2  0  0  0  0
 19 44  1  0  0  0  0
 20 24  2  0  0  0  0
 20 45  1  0  0  0  0
 21 24  1  0  0  0  0
 21 46  1  0  0  0  0
 22 25  2  0  0  0  0
 22 47  1  0  0  0  0
 23 25  1  0  0  0  0
 23 48  1  0  0  0  0
 25 49  1  0  0  0  0
 26 27  1  0  0  0  0
 26 50  1  0  0  0  0
 26 51  1  0  0  0  0
M  END
> <PUBCHEM_COMPOUND_CID>
2678

> <PUBCHEM_COMPOUND_CANONICALIZED>
1

> <PUBCHEM_CACTVS_COMPLEXITY>
443

> <PUBCHEM_CACTVS_HBOND_ACCEPTOR>
5

> <PUBCHEM_CACTVS_HBOND_DONOR>
1

> <PUBCHEM_CACTVS_ROTATABLE_BOND>
8

> <PUBCHEM_CACTVS_SUBSKEYS>
AAADceB7MAAEAAAAAAAAAAAAAAAAAAAAAAA8YIAAAAAAAAABQAAAHgIACAAADCrhmCYwCIMABgCIAiDSCAKCAAAgBQAIiABIBogLYCKBkxWXIAhggACbiAcQgMAOBAAAAAAAAAAIAAAAAAAAAAAAAAAAAA==

> <PUBCHEM_IUPAC_OPENEYE_NAME>
2-[2-[4-[(4-chlorophenyl)-phenyl-methyl]piperazin-1-yl]ethoxy]acetic acid

> <PUBCHEM_IUPAC_CAS_NAME>
2-[2-[4-[(4-chlorophenyl)-phenylmethyl]-1-piperazinyl]ethoxy]acetic acid

> <PUBCHEM_IUPAC_NAME_MARKUP>
2-[2-[4-[(4-chlorophenyl)-phenylmethyl]piperazin-1-yl]ethoxy]acetic acid

> <PUBCHEM_IUPAC_NAME>
2-[2-[4-[(4-chlorophenyl)-phenylmethyl]piperazin-1-yl]ethoxy]acetic acid

> <PUBCHEM_IUPAC_SYSTEMATIC_NAME>
2-[2-[4-[(4-chlorophenyl)-phenyl-methyl]piperazin-1-yl]ethoxy]ethanoic acid

> <PUBCHEM_IUPAC_TRADITIONAL_NAME>
2-[2-[4-[(4-chlorophenyl)-phenyl-methyl]piperazino]ethoxy]acetic acid

> <PUBCHEM_IUPAC_INCHI>
InChI=1S/C21H25ClN2O3/c22-19-8-6-18(7-9-19)21(17-4-2-1-3-5-17)24-12-10-23(11-13-24)14-15-27-16-20(25)26/h1-9,21H,10-16H2,(H,25,26)

> <PUBCHEM_IUPAC_INCHIKEY>
ZKLPARSLTMPFCP-UHFFFAOYSA-N

> <PUBCHEM_XLOGP3>
1.7

> <PUBCHEM_EXACT_MASS>
388.1553704

> <PUBCHEM_MOLECULAR_FORMULA>
C21H25ClN2O3

> <PUBCHEM_MOLECULAR_WEIGHT>
388.9

> <PUBCHEM_SMILES>
C1CN(CCN1CCOCC(=O)O)C(C2=CC=CC=C2)C3=CC=C(C=C3)Cl

> <PUBCHEM_CONNECTIVITY_SMILES>
C1CN(CCN1CCOCC(=O)O)C(C2=CC=CC=C2)C3=CC=C(C=C3)Cl

> <PUBCHEM_CACTVS_TPSA>
53

> <PUBCHEM_MONOISOTOPIC_WEIGHT>
388.1553704

> <PUBCHEM_TOTAL_CHARGE>
0

> <PUBCHEM_HEAVY_ATOM_COUNT>
27

> <PUBCHEM_ATOM_DEF_STEREO_COUNT>
0

> <PUBCHEM_ATOM_UDEF_STEREO_COUNT>
1

> <PUBCHEM_BOND_DEF_STEREO_COUNT>
0

> <PUBCHEM_BOND_UDEF_STEREO_COUNT>
0

> <PUBCHEM_ISOTOPIC_ATOM_COUNT>
0

> <PUBCHEM_COMPONENT_COUNT>
1

> <PUBCHEM_CACTVS_TAUTO_COUNT>
-1

> <PUBCHEM_COORDINATE_TYPE>
1
5
255

> <PUBCHEM_BONDANNOTATIONS>
11  14  3
13  16  8
13  17  8
14  18  8
14  19  8
16  20  8
17  21  8
18  22  8
19  23  8
20  24  8
21  24  8
22  25  8
23  25  8

$$$$
1549000
  -OEChem-08112611012D

 52 54  0     1  0  0  0  0  0999 V2000
    2.0000   -5.0600    0.0000 Cl  0  0  0  0  0  0  0  0  0  0  0  0
    6.3301    2.4400    0.0000 O   0  0  0  0  0  0  0  0  0  0  0  0
    8.0622    4.4400    0.0000 O   0  0  0  0  0  0  0  0  0  0  0  0
    6.3301    4.4400    0.0000 O   0  0  0  0  0  0  0  0  0  0  0  0
    5.4641   -2.0600    0.0000 N   0  0  0  0  0  0  0  0  0  0  0  0
    5.4641   -0.0600    0.0000 N   0  0  0  0  0  0  0  0  0  0  0  0
    4.5981   -1.5600    0.0000 C   0  0  0  0  0  0  0  0  0  0  0  0
    6.3301   -1.5600    0.0000 C   0  0  0  0  0  0  0  0  0  0  0  0
    4.5981   -0.5600    0.0000 C   0  0  0  0  0  0  0  0  0  0  0  0
    6.3301   -0.5600    0.0000 C   0  0  0  0  0  0  0  0  0  0  0  0
    5.4641   -3.0600    0.0000 C   0  0  1  0  0  0  0  0  0  0  0  0
    5.4641    0.9400    0.0000 C   0  0  0  0  0  0  0  0  0  0  0  0
    4.5981   -3.5600    0.0000 C   0  0  0  0  0  0  0  0  0  0  0  0
    6.3301   -3.5600    0.0000 C   0  0  0  0  0  0  0  0  0  0  0  0
    6.3301    1.4400    0.0000 C   0  0  0  0  0  0  0  0  0  0  0  0
    4.5981   -4.5600    0.0000 C   0  0  0  0  0  0  0  0  0  0  0  0
    3.7321   -3.0600    0.0000 C   0  0  0  0  0  0  0  0  0  0  0  0
    6.3301   -4.5600    0.0000 C   0  0  0  0  0  0  0  0  0  0  0  0
    7.1962   -3.0600    0.0000 C   0  0  0  0  0  0  0  0  0  0  0  0
    3.7321   -5.0600    0.0000 C   0  0  0  0  0  0  0  0  0  0  0  0
    2.8660   -3.5600    0.0000 C   0  0  0  0  0  0  0  0  0  0  0  0
    7.1962   -5.0600    0.0000 C   0  0  0  0  0  0  0  0  0  0  0  0
    8.0622   -3.5600    0.0000 C   0  0  0  0  0  0  0  0  0  0  0  0
    2.8660   -4.5600    0.0000 C   0  0  0  0  0  0  0  0  0  0  0  0
    8.0622   -4.5600    0.0000 C   0  0  0  0  0  0  0  0  0  0  0  0
    7.1962    2.9400    0.0000 C   0  0  0  0  0  0  0  0  0  0  0  0
    7.1962    3.9400    0.0000 C   0  0  0  0  0  0  0  0  0  0  0  0
    3.9875   -1.4523    0.0000 H   0  0  0  0  0  0  0  0  0  0  0  0
    4.3860   -2.1426    0.0000 H   0  0  0  0  0  0  0  0  0  0  0  0
    6.5422   -2.1426    0.0000 H   0  0  0  0  0  0  0  0  0  0  0  0
    6.9407   -1.4523    0.0000 H   0  0  0  0  0  0  0  0  0  0  0  0
    4.3860    0.0226    0.0000 H   0  0  0  0  0  0  0  0  0  0  0  0
    3.9875   -0.6677    0.0000 H   0  0  0  0  0  0  0  0  0  0  0  0
    6.9407   -0.6677    0.0000 H   0  0  0  0  0  0  0  0  0  0  0  0
    6.5422    0.0226    0.0000 H   0  0  0  0  0  0  0  0  0  0  0  0
    6.0010   -2.7500    0.0000 H   0  0  0  0  0  0  0  0  0  0  0  0
    5.2521    1.5226    0.0000 H   0  0  0  0  0  0  0  0  0  0  0  0
    4.8535    0.8323    0.0000 H   0  0  0  0  0  0  0  0  0  0  0  0
    6.5422    0.8574    0.0000 H   0  0  0  0  0  0  0  0  0  0  0  0
    6.9407    1.5477    0.0000 H   0  0  0  0  0  0  0  0  0  0  0  0
    5.1350   -4.8700    0.0000 H   0  0  0  0  0  0  0  0  0  0  0  0
    3.7321   -2.4400    0.0000 H   0  0  0  0  0  0  0  0  0  0  0  0
    5.7932   -4.8700    0.0000 H   0  0  0  0  0  0  0  0  0  0  0  0
    7.1962   -2.4400    0.0000 H   0  0  0  0  0  0  0  0  0  0  0  0
    3.7321   -5.6800    0.0000 H   0  0  0  0  0  0  0  0  0  0  0  0
    2.3291   -3.2500    0.0000 H   0  0  0  0  0  0  0  0  0  0  0  0
    7.1962   -5.6800    0.0000 H   0  0  0  0  0  0  0  0  0  0  0  0
    8.5991   -3.2500    0.0000 H   0  0  0  0  0  0  0  0  0  0  0  0
    8.5991   -4.8700    0.0000 H   0  0  0  0  0  0  0  0  0  0  0  0
    7.4082    2.3574    0.0000 H   0  0  0  0  0  0  0  0  0  0  0  0
    7.8067    3.0477    0.0000 H   0  0  0  0  0  0  0  0  0  0  0  0
    8.0622    5.0600    0.0000 H   0  0  0  0  0  0  0  0  0  0  0  0
  1 24  1  0  0  0  0
  2 15  1  0  0  0  0
  2 26  1  0  0  0  0
  3 27  1  0  0  0  0
  3 52  1  0  0  0  0
  4 27  2  0  0  0  0
  5  7  1  0  0  0  0
  5  8  1  0  0  0  0
 11  5  1  6  0  0  0
  6  9  1  0  0  0  0
  6 10  1  0  0  0  0
  6 12  1  0  0  0  0
  7  9  1  0  0  0  0
  7 28  1  0  0  0  0
  7 29  1  0  0  0  0
  8 10  1  0  0  0  0
  8 30  1  0  0  0  0
  8 31  1  0  0  0  0
  9 32  1  0  0  0  0
  9 33  1  0  0  0  0
 10 34  1  0  0  0  0
 10 35  1  0  0  0  0
 11 13  1  0  0  0  0
 11 14  1  0  0  0  0
 11 36  1  0  0  0  0
 12 15  1  0  0  0  0
 12 37  1  0  0  0  0
 12 38  1  0  0  0  0
 13 16  2  0  0  0  0
 13 17  1  0  0  0  0
 14 18  2  0  0  0  0
 14 19  1  0  0  0  0
 15 39  1  0  0  0  0
 15 40  1  0  0  0  0
 16 20  1  0  0  0  0
 16 41  1  0  0  0  0
 17 21  2  0  0  0  0
 17 42  1  0  0  0  0
 18 22  1  0  0  0  0
 18 43  1  0  0  0  0
 19 23  2  0  0  0  0
 19 44  1  0  0  0  0
 20 24  2  0  0  0  0
 20 45  1  0  0  0  0
 21 24  1  0  0  0  0
 21 46  1  0  0  0  0
 22 25  2  0  0  0  0
 22 47  1  0  0  0  0
 23 25  1  0  0  0  0
 23 48  1  0  0  0  0
 25 49  1  0  0  0  0
 26 27  1  0  0  0  0
 26 50  1  0  0  0  0
 26 51  1  0  0  0  0
M  END
> <PUBCHEM_COMPOUND_CID>
1549000

> <PUBCHEM_COMPOUND_CANONICALIZED>
1

> <PUBCHEM_CACTVS_COMPLEXITY>
443

> <PUBCHEM_CACTVS_HBOND_ACCEPTOR>
5

> <PUBCHEM_CACTVS_HBOND_DONOR>
1

> <PUBCHEM_CACTVS_ROTATABLE_BOND>
8

> <PUBCHEM_CACTVS_SUBSKEYS>
AAADceB7MAAEAAAAAAAAAAAAAAAAAAAAAAA8YIAAAAAAAAABQAAAHgIACAAADCrhmCYwCIMABgCIAiDSCAKCAAAgBQAIiABIBogLYCKBkxWXIAhggACbiAcQgMAOBAAAAAAAAAAIAAAAAAAAAAAAAAAAAA==

> <PUBCHEM_IUPAC_OPENEYE_NAME>
2-[2-[4-[(R)-(4-chlorophenyl)-phenyl-methyl]piperazin-1-yl]ethoxy]acetic acid

> <PUBCHEM_IUPAC_CAS_NAME>
2-[2-[4-[(R)-(4-chlorophenyl)-phenylmethyl]-1-piperazinyl]ethoxy]acetic acid

> <PUBCHEM_IUPAC_NAME_MARKUP>
2-[2-[4-[(<I>R</I>)-(4-chlorophenyl)-phenylmethyl]piperazin-1-yl]ethoxy]acetic acid

> <PUBCHEM_IUPAC_NAME>
2-[2-[4-[(R)-(4-chlorophenyl)-phenylmethyl]piperazin-1-yl]ethoxy]acetic acid

> <PUBCHEM_IUPAC_SYSTEMATIC_NAME>
2-[2-[4-[(R)-(4-chlorophenyl)-phenyl-methyl]piperazin-1-yl]ethoxy]ethanoic acid

> <PUBCHEM_IUPAC_TRADITIONAL_NAME>
2-[2-[4-[(R)-(4-chlorophenyl)-phenyl-methyl]piperazino]ethoxy]acetic acid

> <PUBCHEM_IUPAC_INCHI>
InChI=1S/C21H25ClN2O3/c22-19-8-6-18(7-9-19)21(17-4-2-1-3-5-17)24-12-10-23(11-13-24)14-15-27-16-20(25)26/h1-9,21H,10-16H2,(H,25,26)/t21-/m1/s1

> <PUBCHEM_IUPAC_INCHIKEY>
ZKLPARSLTMPFCP-OAQYLSRUSA-N

> <PUBCHEM_XLOGP3>
1.7

> <PUBCHEM_EXACT_MASS>
388.1553704

> <PUBCHEM_MOLECULAR_FORMULA>
C21H25ClN2O3

> <PUBCHEM_MOLECULAR_WEIGHT>
388.9

> <PUBCHEM_SMILES>
C1CN(CCN1CCOCC(=O)O)[C@H](C2=CC=CC=C2)C3=CC=C(C=C3)Cl

> <PUBCHEM_CONNECTIVITY_SMILES>
C1CN(CCN1CCOCC(=O)O)C(C2=CC=CC=C2)C3=CC=C(C=C3)Cl

> <PUBCHEM_CACTVS_TPSA>
53

> <PUBCHEM_MONOISOTOPIC_WEIGHT>
388.1553704

> <PUBCHEM_TOTAL_CHARGE>
0

> <PUBCHEM_HEAVY_ATOM_COUNT>
27

> <PUBCHEM_ATOM_DEF_STEREO_COUNT>
1

> <PUBCHEM_ATOM_UDEF_STEREO_COUNT>
0

> <PUBCHEM_BOND_DEF_STEREO_COUNT>
0

> <PUBCHEM_BOND_UDEF_STEREO_COUNT>
0

> <PUBCHEM_ISOTOPIC_ATOM_COUNT>
0

> <PUBCHEM_COMPONENT_COUNT>
1

> <PUBCHEM_CACTVS_TAUTO_COUNT>
-1

> <PUBCHEM_COORDINATE_TYPE>
1
5
255

> <PUBCHEM_BONDANNOTATIONS>
13  16  8
13  17  8
14  18  8
14  19  8
16  20  8
17  21  8
18  22  8
19  23  8
20  24  8
21  24  8
22  25  8
23  25  8
11  5  6

$$$$
3957
  -OEChem-08112611012D

 50 53  0     0  0  0  0  0  0999 V2000
    2.0000    3.2317    0.0000 Cl  0  0  0  0  0  0  0  0  0  0  0  0
    6.7034   -2.5953    0.0000 O   0  0  0  0  0  0  0  0  0  0  0  0
    4.9714   -2.5953    0.0000 O   0  0  0  0  0  0  0  0  0  0  0  0
    5.8374   -1.0953    0.0000 N   0  0  0  0  0  0  0  0  0  0  0  0
    7.4909    1.6184    0.0000 N   0  0  0  0  0  0  0  0  0  0  0  0
    5.8374    0.9047    0.0000 C   0  0  0  0  0  0  0  0  0  0  0  0
    4.9714    0.4047    0.0000 C   0  0  0  0  0  0  0  0  0  0  0  0
    6.7034    0.4047    0.0000 C   0  0  0  0  0  0  0  0  0  0  0  0
    5.8374    1.9047    0.0000 C   0  0  0  0  0  0  0  0  0  0  0  0
    4.9714   -0.5953    0.0000 C   0  0  0  0  0  0  0  0  0  0  0  0
    6.7034   -0.5953    0.0000 C   0  0  0  0  0  0  0  0  0  0  0  0
    4.9365    2.3386    0.0000 C   0  0  0  0  0  0  0  0  0  0  0  0
    6.7384    2.3386    0.0000 C   0  0  0  0  0  0  0  0  0  0  0  0
    4.7139    3.3135    0.0000 C   0  0  0  0  0  0  0  0  0  0  0  0
    5.3374    4.0953    0.0000 C   0  0  0  0  0  0  0  0  0  0  0  0
    6.3374    4.0953    0.0000 C   0  0  0  0  0  0  0  0  0  0  0  0
    6.9609    3.3135    0.0000 C   0  0  0  0  0  0  0  0  0  0  0  0
    4.1839    1.6184    0.0000 C   0  0  0  0  0  0  0  0  0  0  0  0
    5.8374   -2.0953    0.0000 C   0  0  0  0  0  0  0  0  0  0  0  0
    3.7234    3.6359    0.0000 C   0  0  0  0  0  0  0  0  0  0  0  0
    7.9514    3.6358    0.0000 C   0  0  0  0  0  0  0  0  0  0  0  0
    3.1862    1.9178    0.0000 C   0  0  0  0  0  0  0  0  0  0  0  0
    2.9544    2.9333    0.0000 C   0  0  0  0  0  0  0  0  0  0  0  0
    8.7204    2.9332    0.0000 C   0  0  0  0  0  0  0  0  0  0  0  0
    8.4886    1.9177    0.0000 C   0  0  0  0  0  0  0  0  0  0  0  0
    6.7034   -3.5953    0.0000 C   0  0  0  0  0  0  0  0  0  0  0  0
    7.5694   -4.0953    0.0000 C   0  0  0  0  0  0  0  0  0  0  0  0
    4.7593    0.9873    0.0000 H   0  0  0  0  0  0  0  0  0  0  0  0
    4.3608    0.2970    0.0000 H   0  0  0  0  0  0  0  0  0  0  0  0
    7.3140    0.2970    0.0000 H   0  0  0  0  0  0  0  0  0  0  0  0
    6.9155    0.9873    0.0000 H   0  0  0  0  0  0  0  0  0  0  0  0
    4.3608   -0.4876    0.0000 H   0  0  0  0  0  0  0  0  0  0  0  0
    4.7593   -1.1779    0.0000 H   0  0  0  0  0  0  0  0  0  0  0  0
    6.9155   -1.1779    0.0000 H   0  0  0  0  0  0  0  0  0  0  0  0
    7.3140   -0.4877    0.0000 H   0  0  0  0  0  0  0  0  0  0  0  0
    5.4754    4.6998    0.0000 H   0  0  0  0  0  0  0  0  0  0  0  0
    4.7788    4.3643    0.0000 H   0  0  0  0  0  0  0  0  0  0  0  0
    6.8960    4.3643    0.0000 H   0  0  0  0  0  0  0  0  0  0  0  0
    6.1995    4.6998    0.0000 H   0  0  0  0  0  0  0  0  0  0  0  0
    4.3288    1.0156    0.0000 H   0  0  0  0  0  0  0  0  0  0  0  0
    3.5925    4.2419    0.0000 H   0  0  0  0  0  0  0  0  0  0  0  0
    8.0824    4.2418    0.0000 H   0  0  0  0  0  0  0  0  0  0  0  0
    2.7333    1.4943    0.0000 H   0  0  0  0  0  0  0  0  0  0  0  0
    9.3122    3.1183    0.0000 H   0  0  0  0  0  0  0  0  0  0  0  0
    8.9415    1.4943    0.0000 H   0  0  0  0  0  0  0  0  0  0  0  0
    6.0928   -3.4877    0.0000 H   0  0  0  0  0  0  0  0  0  0  0  0
    6.4914   -4.1779    0.0000 H   0  0  0  0  0  0  0  0  0  0  0  0
    7.2594   -4.6323    0.0000 H   0  0  0  0  0  0  0  0  0  0  0  0
    8.1064   -4.4053    0.0000 H   0  0  0  0  0  0  0  0  0  0  0  0
    7.8794   -3.5584    0.0000 H   0  0  0  0  0  0  0  0  0  0  0  0
  1 23  1  0  0  0  0
  2 19  1  0  0  0  0
  2 26  1  0  0  0  0
  3 19  2  0  0  0  0
  4 10  1  0  0  0  0
  4 11  1  0  0  0  0
  4 19  1  0  0  0  0
  5 13  1  0  0  0  0
  5 25  2  0  0  0  0
  6  7  1  0  0  0  0
  6  8  1  0  0  0  0
  6  9  2  0  0  0  0
  7 10  1  0  0  0  0
  7 28  1  0  0  0  0
  7 29  1  0  0  0  0
  8 11  1  0  0  0  0
  8 30  1  0  0  0  0
  8 31  1  0  0  0  0
  9 12  1  0  0  0  0
  9 13  1  0  0  0  0
 10 32  1  0  0  0  0
 10 33  1  0  0  0  0
 11 34  1  0  0  0  0
 11 35  1  0  0  0  0
 12 14  2  0  0  0  0
 12 18  1  0  0  0  0
 13 17  2  0  0  0  0
 14 15  1  0  0  0  0
 14 20  1  0  0  0  0
 15 16  1  0  0  0  0
 15 36  1  0  0  0  0
 15 37  1  0  0  0  0
 16 17  1  0  0  0  0
 16 38  1  0  0  0  0
 16 39  1  0  0  0  0
 17 21  1  0  0  0  0
 18 22  2  0  0  0  0
 18 40  1  0  0  0  0
 20 23  2  0  0  0  0
 20 41  1  0  0  0  0
 21 24  2  0  0  0  0
 21 42  1  0  0  0  0
 22 23  1  0  0  0  0
 22 43  1  0  0  0  0
 24 25  1  0  0  0  0
 24 44  1  0  0  0  0
 25 45  1  0  0  0  0
 26 27  1  0  0  0  0
 26 46  1  0  0  0  0
 26 47  1  0  0  0  0
 27 48  1  0  0  0  0
 27 49  1  0  0  0  0
 27 50  1  0  0  0  0
M  END
> <PUBCHEM_COMPOUND_CID>
3957

> <PUBCHEM_COMPOUND_CANONICALIZED>
1

> <PUBCHEM_CACTVS_COMPLEXITY>
569

> <PUBCHEM_CACTVS_HBOND_ACCEPTOR>
3

> <PUBCHEM_CACTVS_HBOND_DONOR>
0

> <PUBCHEM_CACTVS_ROTATABLE_BOND>
2

> <PUBCHEM_CACTVS_SUBSKEYS>
AAADceB7MAAEAAAAAAAAAAAAAAAAAAAAAAA8WIAABgAAAAABwAAAHgIAAAAADArhniY+iJMIFACoAzRnXACCgCAxByAI2CA4ZpgIIOLBk5GMIAhghgDIyAcQgMAOhAAAIAAQAAAIAABAACAAAAAAAAAAAA==

> <PUBCHEM_IUPAC_OPENEYE_NAME>
ethyl 4-(13-chloro-4-azatricyclo[9.4.0.03,8]pentadeca-1(11),3(8),4,6,12,14-hexaen-2-ylidene)piperidine-1-carboxylate

> <PUBCHEM_IUPAC_CAS_NAME>
4-(13-chloro-4-azatricyclo[9.4.0.03,8]pentadeca-1(11),3(8),4,6,12,14-hexaen-2-ylidene)-1-piperidinecarboxylic acid ethyl ester

> <PUBCHEM_IUPAC_NAME_MARKUP>
ethyl 4-(13-chloro-4-azatricyclo[9.4.0.0<SUP>3,8</SUP>]pentadeca-1(11),3(8),4,6,12,14-hexaen-2-ylidene)piperidine-1-carboxylate

> <PUBCHEM_IUPAC_NAME>
ethyl 4-(13-chloro-4-azatricyclo[9.4.0.03,8]pentadeca-1(11),3(8),4,6,12,14-hexaen-2-ylidene)piperidine-1-carboxylate

> <PUBCHEM_IUPAC_SYSTEMATIC_NAME>
ethyl 4-(13-chloranyl-4-azatricyclo[9.4.0.03,8]pentadeca-1(11),3(8),4,6,12,14-hexaen-2-ylidene)piperidine-1-carboxylate

> <PUBCHEM_IUPAC_TRADITIONAL_NAME>
4-(13-chloro-4-azatricyclo[9.4.0.03,8]pentadeca-1(11),3(8),4,6,12,14-hexaen-2-ylidene)piperidine-1-carboxylic acid ethyl ester

> <PUBCHEM_IUPAC_INCHI>
InChI=1S/C22H23ClN2O2/c1-2-27-22(26)25-12-9-15(10-13-25)20-19-8-7-18(23)14-17(19)6-5-16-4-3-11-24-21(16)20/h3-4,7-8,11,14H,2,5-6,9-10,12-13H2,1H3

> <PUBCHEM_IUPAC_INCHIKEY>
JCCNYMKQOSZNPW-UHFFFAOYSA-N

> <PUBCHEM_XLOGP3>
5.2

> <PUBCHEM_EXACT_MASS>
382.1448057

> <PUBCHEM_MOLECULAR_FORMULA>
C22H23ClN2O2

> <PUBCHEM_MOLECULAR_WEIGHT>
382.9

> <PUBCHEM_SMILES>
CCOC(=O)N1CCC(=C2C3=C(CCC4=C2N=CC=C4)C=C(C=C3)Cl)CC1

> <PUBCHEM_CONNECTIVITY_SMILES>
CCOC(=O)N1CCC(=C2C3=C(CCC4=C2N=CC=C4)C=C(C=C3)Cl)CC1

> <PUBCHEM_CACTVS_TPSA>
42.4

> <PUBCHEM_MONOISOTOPIC_WEIGHT>
382.1448057

> <PUBCHEM_TOTAL_CHARGE>
0

> <PUBCHEM_HEAVY_ATOM_COUNT>
27

> <PUBCHEM_ATOM_DEF_STEREO_COUNT>
0

> <PUBCHEM_ATOM_UDEF_STEREO_COUNT>
0

> <PUBCHEM_BOND_DEF_STEREO_COUNT>
0

> <PUBCHEM_BOND_UDEF_STEREO_COUNT>
0

> <PUBCHEM_ISOTOPIC_ATOM_COUNT>
0

> <PUBCHEM_COMPONENT_COUNT>
1

> <PUBCHEM_CACTVS_TAUTO_COUNT>
-1

> <PUBCHEM_COORDINATE_TYPE>
1
5
255

> <PUBCHEM_BONDANNOTATIONS>
12  14  8
12  18  8
13  17  8
14  20  8
17  21  8
18  22  8
20  23  8
21  24  8
22  23  8
24  25  8
5  13  8
5  25  8

$$$$
124087
  -OEChem-08112611012D

 41 44  0     0  0  0  0  0  0999 V2000
    2.0000    2.0417    0.0000 Cl  0  0  0  0  0  0  0  0  0  0  0  0
    5.8374   -2.2853    0.0000 N   0  0  0  0  0  0  0  0  0  0  0  0
    7.4909    0.4284    0.0000 N   0  0  0  0  0  0  0  0  0  0  0  0
    5.8374   -0.2853    0.0000 C   0  0  0  0  0  0  0  0  0  0  0  0
    5.8374    0.7147    0.0000 C   0  0  0  0  0  0  0  0  0  0  0  0
    4.9714   -0.7853    0.0000 C   0  0  0  0  0  0  0  0  0  0  0  0
    6.7034   -0.7853    0.0000 C   0  0  0  0  0  0  0  0  0  0  0  0
    4.9714   -1.7853    0.0000 C   0  0  0  0  0  0  0  0  0  0  0  0
    6.7034   -1.7853    0.0000 C   0  0  0  0  0  0  0  0  0  0  0  0
    4.9365    1.1486    0.0000 C   0  0  0  0  0  0  0  0  0  0  0  0
    6.7384    1.1486    0.0000 C   0  0  0  0  0  0  0  0  0  0  0  0
    5.3374    2.9053    0.0000 C   0  0  0  0  0  0  0  0  0  0  0  0
    4.7139    2.1235    0.0000 C   0  0  0  0  0  0  0  0  0  0  0  0
    6.3374    2.9053    0.0000 C   0  0  0  0  0  0  0  0  0  0  0  0
    6.9609    2.1235    0.0000 C   0  0  0  0  0  0  0  0  0  0  0  0
    4.1839    0.4284    0.0000 C   0  0  0  0  0  0  0  0  0  0  0  0
    3.7234    2.4458    0.0000 C   0  0  0  0  0  0  0  0  0  0  0  0
    7.9514    2.4458    0.0000 C   0  0  0  0  0  0  0  0  0  0  0  0
    3.1862    0.7277    0.0000 C   0  0  0  0  0  0  0  0  0  0  0  0
    2.9544    1.7433    0.0000 C   0  0  0  0  0  0  0  0  0  0  0  0
    8.7204    1.7432    0.0000 C   0  0  0  0  0  0  0  0  0  0  0  0
    8.4886    0.7277    0.0000 C   0  0  0  0  0  0  0  0  0  0  0  0
    4.7593   -0.2027    0.0000 H   0  0  0  0  0  0  0  0  0  0  0  0
    4.3608   -0.8930    0.0000 H   0  0  0  0  0  0  0  0  0  0  0  0
    7.3140   -0.8930    0.0000 H   0  0  0  0  0  0  0  0  0  0  0  0
    6.9155   -0.2027    0.0000 H   0  0  0  0  0  0  0  0  0  0  0  0
    4.3608   -1.6777    0.0000 H   0  0  0  0  0  0  0  0  0  0  0  0
    4.7593   -2.3679    0.0000 H   0  0  0  0  0  0  0  0  0  0  0  0
    6.9155   -2.3679    0.0000 H   0  0  0  0  0  0  0  0  0  0  0  0
    7.3140   -1.6777    0.0000 H   0  0  0  0  0  0  0  0  0  0  0  0
    5.4754    3.5098    0.0000 H   0  0  0  0  0  0  0  0  0  0  0  0
    4.7788    3.1743    0.0000 H   0  0  0  0  0  0  0  0  0  0  0  0
    6.8960    3.1743    0.0000 H   0  0  0  0  0  0  0  0  0  0  0  0
    6.1995    3.5098    0.0000 H   0  0  0  0  0  0  0  0  0  0  0  0
    5.8374   -2.9053    0.0000 H   0  0  0  0  0  0  0  0  0  0  0  0
    4.3288   -0.1744    0.0000 H   0  0  0  0  0  0  0  0  0  0  0  0
    3.5925    3.0519    0.0000 H   0  0  0  0  0  0  0  0  0  0  0  0
    8.0824    3.0518    0.0000 H   0  0  0  0  0  0  0  0  0  0  0  0
    2.7333    0.3043    0.0000 H   0  0  0  0  0  0  0  0  0  0  0  0
    9.3122    1.9283    0.0000 H   0  0  0  0  0  0  0  0  0  0  0  0
    8.9415    0.3042    0.0000 H   0  0  0  0  0  0  0  0  0  0  0  0
  1 20  1  0  0  0  0
  2  8  1  0  0  0  0
  2  9  1  0  0  0  0
  2 35  1  0  0  0  0
  3 11  1  0  0  0  0
  3 22  2  0  0  0  0
  4  5  2  0  0  0  0
  4  6  1  0  0  0  0
  4  7  1  0  0  0  0
  5 10  1  0  0  0  0
  5 11  1  0  0  0  0
  6  8  1  0  0  0  0
  6 23  1  0  0  0  0
  6 24  1  0  0  0  0
  7  9  1  0  0  0  0
  7 25  1  0  0  0  0
  7 26  1  0  0  0  0
  8 27  1  0  0  0  0
  8 28  1  0  0  0  0
  9 29  1  0  0  0  0
  9 30  1  0  0  0  0
 10 13  2  0  0  0  0
 10 16  1  0  0  0  0
 11 15  2  0  0  0  0
 12 13  1  0  0  0  0
 12 14  1  0  0  0  0
 12 31  1  0  0  0  0
 12 32  1  0  0  0  0
 13 17  1  0  0  0  0
 14 15  1  0  0  0  0
 14 33  1  0  0  0  0
 14 34  1  0  0  0  0
 15 18  1  0  0  0  0
 16 19  2  0  0  0  0
 16 36  1  0  0  0  0
 17 20  2  0  0  0  0
 17 37  1  0  0  0  0
 18 21  2  0  0  0  0
 18 38  1  0  0  0  0
 19 20  1  0  0  0  0
 19 39  1  0  0  0  0
 21 22  1  0  0  0  0
 21 40  1  0  0  0  0
 22 41  1  0  0  0  0
M  END
> <PUBCHEM_COMPOUND_CID>
124087

> <PUBCHEM_COMPOUND_CANONICALIZED>
1

> <PUBCHEM_CACTVS_COMPLEXITY>
425

> <PUBCHEM_CACTVS_HBOND_ACCEPTOR>
2

> <PUBCHEM_CACTVS_HBOND_DONOR>
1

> <PUBCHEM_CACTVS_ROTATABLE_BOND>
0

> <PUBCHEM_CACTVS_SUBSKEYS>
AAADceB7AAAEAAAAAAAAAAAAAAAAAAAAAAA8WIAABgAAAAABwAAAHAIQAAAADArBHiQ8gJLIEACgAzRnRACCgCAxByAI2KA4ZpgIIOLBk5GEIAhgkADIyAcQgMAOhAAAIAAQAAAIAABAACAAAAAAAAAAAA==

> <PUBCHEM_IUPAC_OPENEYE_NAME>
13-chloro-2-(4-piperidylidene)-4-azatricyclo[9.4.0.03,8]pentadeca-1(11),3(8),4,6,12,14-hexaene

> <PUBCHEM_IUPAC_CAS_NAME>
13-chloro-2-(4-piperidinylidene)-4-azatricyclo[9.4.0.03,8]pentadeca-1(11),3(8),4,6,12,14-hexaene

> <PUBCHEM_IUPAC_NAME_MARKUP>
13-chloro-2-piperidin-4-ylidene-4-azatricyclo[9.4.0.0<SUP>3,8</SUP>]pentadeca-1(11),3(8),4,6,12,14-hexaene

> <PUBCHEM_IUPAC_NAME>
13-chloro-2-piperidin-4-ylidene-4-azatricyclo[9.4.0.03,8]pentadeca-1(11),3(8),4,6,12,14-hexaene

> <PUBCHEM_IUPAC_SYSTEMATIC_NAME>
13-chloranyl-2-piperidin-4-ylidene-4-azatricyclo[9.4.0.03,8]pentadeca-1(11),3(8),4,6,12,14-hexaene

> <PUBCHEM_IUPAC_TRADITIONAL_NAME>
13-chloro-2-(4-piperidylidene)-4-azatricyclo[9.4.0.03,8]pentadeca-1(11),3(8),4,6,12,14-hexaene

> <PUBCHEM_IUPAC_INCHI>
InChI=1S/C19H19ClN2/c20-16-5-6-17-15(12-16)4-3-14-2-1-9-22-19(14)18(17)13-7-10-21-11-8-13/h1-2,5-6,9,12,21H,3-4,7-8,10-11H2

> <PUBCHEM_IUPAC_INCHIKEY>
JAUOIFJMECXRGI-UHFFFAOYSA-N

> <PUBCHEM_XLOGP3>
4.5

> <PUBCHEM_EXACT_MASS>
310.1236763

> <PUBCHEM_MOLECULAR_FORMULA>
C19H19ClN2

> <PUBCHEM_MOLECULAR_WEIGHT>
310.8

> <PUBCHEM_SMILES>
C1CC2=C(C=CC(=C2)Cl)C(=C3CCNCC3)C4=C1C=CC=N4

> <PUBCHEM_CONNECTIVITY_SMILES>
C1CC2=C(C=CC(=C2)Cl)C(=C3CCNCC3)C4=C1C=CC=N4

> <PUBCHEM_CACTVS_TPSA>
24.9

> <PUBCHEM_MONOISOTOPIC_WEIGHT>
310.1236763

> <PUBCHEM_TOTAL_CHARGE>
0

> <PUBCHEM_HEAVY_ATOM_COUNT>
22

> <PUBCHEM_ATOM_DEF_STEREO_COUNT>
0

> <PUBCHEM_ATOM_UDEF_STEREO_COUNT>
0

> <PUBCHEM_BOND_DEF_STEREO_COUNT>
0

> <PUBCHEM_BOND_UDEF_STEREO_COUNT>
0

> <PUBCHEM_ISOTOPIC_ATOM_COUNT>
0

> <PUBCHEM_COMPONENT_COUNT>
1

> <PUBCHEM_CACTVS_TAUTO_COUNT>
-1

> <PUBCHEM_COORDINATE_TYPE>
1
5
255

> <PUBCHEM_BONDANNOTATIONS>
10  13  8
10  16  8
11  15  8
13  17  8
15  18  8
16  19  8
17  20  8
18  21  8
19  20  8
21  22  8
3  11  8
3  22  8

$$$$
3348
  -OEChem-08112611012D

 76 79  0     1  0  0  0  0  0999 V2000
    4.1350    4.5600    0.0000 O   0  0  0  0  0  0  0  0  0  0  0  0
    2.5369   -0.9400    0.0000 O   0  0  0  0  0  0  0  0  0  0  0  0
    2.5369   -6.9400    0.0000 O   0  0  0  0  0  0  0  0  0  0  0  0
    4.2690   -6.9400    0.0000 O   0  0  0  0  0  0  0  0  0  0  0  0
    5.1350    1.5600    0.0000 N   0  0  0  0  0  0  0  0  0  0  0  0
    5.1350    3.5600    0.0000 C   0  0  0  0  0  0  0  0  0  0  0  0
    6.0010    3.0600    0.0000 C   0  0  0  0  0  0  0  0  0  0  0  0
    4.2690    3.0600    0.0000 C   0  0  0  0  0  0  0  0  0  0  0  0
    5.1350    4.5600    0.0000 C   0  0  0  0  0  0  0  0  0  0  0  0
    6.0010    2.0600    0.0000 C   0  0  0  0  0  0  0  0  0  0  0  0
    4.2690    2.0600    0.0000 C   0  0  0  0  0  0  0  0  0  0  0  0
    5.1350    0.5600    0.0000 C   0  0  0  0  0  0  0  0  0  0  0  0
    5.1350    5.5600    0.0000 C   0  0  0  0  0  0  0  0  0  0  0  0
    6.1350    4.5600    0.0000 C   0  0  0  0  0  0  0  0  0  0  0  0
    4.2690    0.0600    0.0000 C   0  0  0  0  0  0  0  0  0  0  0  0
    4.2690   -0.9400    0.0000 C   0  0  0  0  0  0  0  0  0  0  0  0
    6.0010    6.0600    0.0000 C   0  0  0  0  0  0  0  0  0  0  0  0
    6.6350    5.4260    0.0000 C   0  0  0  0  0  0  0  0  0  0  0  0
    4.2690    6.0600    0.0000 C   0  0  0  0  0  0  0  0  0  0  0  0
    6.6350    3.6940    0.0000 C   0  0  0  0  0  0  0  0  0  0  0  0
    3.4030   -1.4400    0.0000 C   0  0  3  0  0  0  0  0  0  0  0  0
    6.0010    7.0600    0.0000 C   0  0  0  0  0  0  0  0  0  0  0  0
    7.6350    5.4260    0.0000 C   0  0  0  0  0  0  0  0  0  0  0  0
    4.2690    7.0600    0.0000 C   0  0  0  0  0  0  0  0  0  0  0  0
    7.6350    3.6940    0.0000 C   0  0  0  0  0  0  0  0  0  0  0  0
    3.4030   -2.4400    0.0000 C   0  0  0  0  0  0  0  0  0  0  0  0
    5.1350    7.5600    0.0000 C   0  0  0  0  0  0  0  0  0  0  0  0
    8.1350    4.5600    0.0000 C   0  0  0  0  0  0  0  0  0  0  0  0
    2.5369   -2.9400    0.0000 C   0  0  0  0  0  0  0  0  0  0  0  0
    4.2690   -2.9400    0.0000 C   0  0  0  0  0  0  0  0  0  0  0  0
    3.4030   -5.4400    0.0000 C   0  0  0  0  0  0  0  0  0  0  0  0
    3.4030   -4.4400    0.0000 C   0  0  0  0  0  0  0  0  0  0  0  0
    2.5369   -3.9400    0.0000 C   0  0  0  0  0  0  0  0  0  0  0  0
    4.2690   -3.9400    0.0000 C   0  0  0  0  0  0  0  0  0  0  0  0
    2.4030   -5.4400    0.0000 C   0  0  0  0  0  0  0  0  0  0  0  0
    4.4030   -5.4400    0.0000 C   0  0  0  0  0  0  0  0  0  0  0  0
    3.4030   -6.4400    0.0000 C   0  0  0  0  0  0  0  0  0  0  0  0
    5.6720    3.8700    0.0000 H   0  0  0  0  0  0  0  0  0  0  0  0
    6.6116    2.9523    0.0000 H   0  0  0  0  0  0  0  0  0  0  0  0
    6.2131    3.6426    0.0000 H   0  0  0  0  0  0  0  0  0  0  0  0
    4.0569    3.6426    0.0000 H   0  0  0  0  0  0  0  0  0  0  0  0
    3.6584    2.9523    0.0000 H   0  0  0  0  0  0  0  0  0  0  0  0
    6.2131    1.4774    0.0000 H   0  0  0  0  0  0  0  0  0  0  0  0
    6.6116    2.1677    0.0000 H   0  0  0  0  0  0  0  0  0  0  0  0
    3.6584    2.1677    0.0000 H   0  0  0  0  0  0  0  0  0  0  0  0
    4.0569    1.4774    0.0000 H   0  0  0  0  0  0  0  0  0  0  0  0
    5.3471   -0.0226    0.0000 H   0  0  0  0  0  0  0  0  0  0  0  0
    5.7456    0.6677    0.0000 H   0  0  0  0  0  0  0  0  0  0  0  0
    4.0569    0.6426    0.0000 H   0  0  0  0  0  0  0  0  0  0  0  0
    3.6584   -0.0477    0.0000 H   0  0  0  0  0  0  0  0  0  0  0  0
    3.8250    5.0969    0.0000 H   0  0  0  0  0  0  0  0  0  0  0  0
    4.4810   -1.5226    0.0000 H   0  0  0  0  0  0  0  0  0  0  0  0
    4.8796   -0.8323    0.0000 H   0  0  0  0  0  0  0  0  0  0  0  0
    6.5380    5.7500    0.0000 H   0  0  0  0  0  0  0  0  0  0  0  0
    6.3250    5.9630    0.0000 H   0  0  0  0  0  0  0  0  0  0  0  0
    3.7321    5.7500    0.0000 H   0  0  0  0  0  0  0  0  0  0  0  0
    6.3250    3.1570    0.0000 H   0  0  0  0  0  0  0  0  0  0  0  0
    2.8660   -1.7500    0.0000 H   0  0  0  0  0  0  0  0  0  0  0  0
    6.5380    7.3700    0.0000 H   0  0  0  0  0  0  0  0  0  0  0  0
    7.9450    5.9630    0.0000 H   0  0  0  0  0  0  0  0  0  0  0  0
    3.7321    7.3700    0.0000 H   0  0  0  0  0  0  0  0  0  0  0  0
    7.9450    3.1570    0.0000 H   0  0  0  0  0  0  0  0  0  0  0  0
    5.1350    8.1800    0.0000 H   0  0  0  0  0  0  0  0  0  0  0  0
    8.7550    4.5600    0.0000 H   0  0  0  0  0  0  0  0  0  0  0  0
    2.0000   -1.2500    0.0000 H   0  0  0  0  0  0  0  0  0  0  0  0
    2.0000   -2.6300    0.0000 H   0  0  0  0  0  0  0  0  0  0  0  0
    4.8059   -2.6300    0.0000 H   0  0  0  0  0  0  0  0  0  0  0  0
    2.0000   -4.2500    0.0000 H   0  0  0  0  0  0  0  0  0  0  0  0
    4.8059   -4.2500    0.0000 H   0  0  0  0  0  0  0  0  0  0  0  0
    2.4030   -4.8200    0.0000 H   0  0  0  0  0  0  0  0  0  0  0  0
    1.7830   -5.4400    0.0000 H   0  0  0  0  0  0  0  0  0  0  0  0
    2.4030   -6.0600    0.0000 H   0  0  0  0  0  0  0  0  0  0  0  0
    4.4030   -6.0600    0.0000 H   0  0  0  0  0  0  0  0  0  0  0  0
    5.0230   -5.4400    0.0000 H   0  0  0  0  0  0  0  0  0  0  0  0
    4.4030   -4.8200    0.0000 H   0  0  0  0  0  0  0  0  0  0  0  0
    2.5369   -7.5600    0.0000 H   0  0  0  0  0  0  0  0  0  0  0  0
  1  9  1  0  0  0  0
  1 51  1  0  0  0  0
  2 21  1  0  0  0  0
  2 65  1  0  0  0  0
  3 37  1  0  0  0  0
  3 76  1  0  0  0  0
  4 37  2  0  0  0  0
  5 10  1  0  0  0  0
  5 11  1  0  0  0  0
  5 12  1  0  0  0  0
  6  7  1  0  0  0  0
  6  8  1  0  0  0  0
  6  9  1  0  0  0  0
  6 38  1  0  0  0  0
  7 10  1  0  0  0  0
  7 39  1  0  0  0  0
  7 40  1  0  0  0  0
  8 11  1  0  0  0  0
  8 41  1  0  0  0  0
  8 42  1  0  0  0  0
  9 13  1  0  0  0  0
  9 14  1  0  0  0  0
 10 43  1  0  0  0  0
 10 44  1  0  0  0  0
 11 45  1  0  0  0  0
 11 46  1  0  0  0  0
 12 15  1  0  0  0  0
 12 47  1  0  0  0  0
 12 48  1  0  0  0  0
 13 17  2  0  0  0  0
 13 19  1  0  0  0  0
 14 18  2  0  0  0  0
 14 20  1  0  0  0  0
 15 16  1  0  0  0  0
 15 49  1  0  0  0  0
 15 50  1  0  0  0  0
 16 21  1  0  0  0  0
 16 52  1  0  0  0  0
 16 53  1  0  0  0  0
 17 22  1  0  0  0  0
 17 54  1  0  0  0  0
 18 23  1  0  0  0  0
 18 55  1  0  0  0  0
 19 24  2  0  0  0  0
 19 56  1  0  0  0  0
 20 25  2  0  0  0  0
 20 57  1  0  0  0  0
 21 26  1  0  0  0  0
 21 58  1  0  0  0  0
 22 27  2  0  0  0  0
 22 59  1  0  0  0  0
 23 28  2  0  0  0  0
 23 60  1  0  0  0  0
 24 27  1  0  0  0  0
 24 61  1  0  0  0  0
 25 28  1  0  0  0  0
 25 62  1  0  0  0  0
 26 29  2  0  0  0  0
 26 30  1  0  0  0  0
 27 63  1  0  0  0  0
 28 64  1  0  0  0  0
 29 33  1  0  0  0  0
 29 66  1  0  0  0  0
 30 34  2  0  0  0  0
 30 67  1  0  0  0  0
 31 32  1  0  0  0  0
 31 35  1  0  0  0  0
 31 36  1  0  0  0  0
 31 37  1  0  0  0  0
 32 33  2  0  0  0  0
 32 34  1  0  0  0  0
 33 68  1  0  0  0  0
 34 69  1  0  0  0  0
 35 70  1  0  0  0  0
 35 71  1  0  0  0  0
 35 72  1  0  0  0  0
 36 73  1  0  0  0  0
 36 74  1  0  0  0  0
 36 75  1  0  0  0  0
M  END
> <PUBCHEM_COMPOUND_CID>
3348

> <PUBCHEM_COMPOUND_CANONICALIZED>
1

> <PUBCHEM_CACTVS_COMPLEXITY>
678

> <PUBCHEM_CACTVS_HBOND_ACCEPTOR>
5

> <PUBCHEM_CACTVS_HBOND_DONOR>
3

> <PUBCHEM_CACTVS_ROTATABLE_BOND>
10

> <PUBCHEM_CACTVS_SUBSKEYS>
AAADcfB+OAAAAAAAAAAAAAAAAAAAAAAAAAA8YMEAAAAAAAABUAAAHgAACAAAD1ThmAYyCIMAAgCIAiDSCAACAAAgAAAIiAEICIgINjKAlRCEcAAkwAGImAe4yPCPwAAAAAAAAACAAAAAAAAAAAAAAAAAAA==

> <PUBCHEM_IUPAC_OPENEYE_NAME>
2-[4-[1-hydroxy-4-[4-[hydroxy(diphenyl)methyl]-1-piperidyl]butyl]phenyl]-2-methyl-propanoic acid

> <PUBCHEM_IUPAC_CAS_NAME>
2-[4-[1-hydroxy-4-[4-[hydroxy(diphenyl)methyl]-1-piperidinyl]butyl]phenyl]-2-methylpropanoic acid

> <PUBCHEM_IUPAC_NAME_MARKUP>
2-[4-[1-hydroxy-4-[4-[hydroxy(diphenyl)methyl]piperidin-1-yl]butyl]phenyl]-2-methylpropanoic acid

> <PUBCHEM_IUPAC_NAME>
2-[4-[1-hydroxy-4-[4-[hydroxy(diphenyl)methyl]piperidin-1-yl]butyl]phenyl]-2-methylpropanoic acid

> <PUBCHEM_IUPAC_SYSTEMATIC_NAME>
2-methyl-2-[4-[1-oxidanyl-4-[4-[oxidanyl(diphenyl)methyl]piperidin-1-yl]butyl]phenyl]propanoic acid

> <PUBCHEM_IUPAC_TRADITIONAL_NAME>
2-[4-[1-hydroxy-4-[4-[hydroxy(diphenyl)methyl]piperidino]butyl]phenyl]-2-methyl-propionic acid

> <PUBCHEM_IUPAC_INCHI>
InChI=1S/C32H39NO4/c1-31(2,30(35)36)25-17-15-24(16-18-25)29(34)14-9-21-33-22-19-28(20-23-33)32(37,26-10-5-3-6-11-26)27-12-7-4-8-13-27/h3-8,10-13,15-18,28-29,34,37H,9,14,19-23H2,1-2H3,(H,35,36)

> <PUBCHEM_IUPAC_INCHIKEY>
RWTNPBWLLIMQHL-UHFFFAOYSA-N

> <PUBCHEM_XLOGP3_AA>
3

> <PUBCHEM_EXACT_MASS>
501.28790873

> <PUBCHEM_MOLECULAR_FORMULA>
C32H39NO4

> <PUBCHEM_MOLECULAR_WEIGHT>
501.7

> <PUBCHEM_SMILES>
CC(C)(C1=CC=C(C=C1)C(CCCN2CCC(CC2)C(C3=CC=CC=C3)(C4=CC=CC=C4)O)O)C(=O)O

> <PUBCHEM_CONNECTIVITY_SMILES>
CC(C)(C1=CC=C(C=C1)C(CCCN2CCC(CC2)C(C3=CC=CC=C3)(C4=CC=CC=C4)O)O)C(=O)O

> <PUBCHEM_CACTVS_TPSA>
81

> <PUBCHEM_MONOISOTOPIC_WEIGHT>
501.28790873

> <PUBCHEM_TOTAL_CHARGE>
0

> <PUBCHEM_HEAVY_ATOM_COUNT>
37

> <PUBCHEM_ATOM_DEF_STEREO_COUNT>
0

> <PUBCHEM_ATOM_UDEF_STEREO_COUNT>
1

> <PUBCHEM_BOND_DEF_STEREO_COUNT>
0

> <PUBCHEM_BOND_UDEF_STEREO_COUNT>
0

> <PUBCHEM_ISOTOPIC_ATOM_COUNT>
0

> <PUBCHEM_COMPONENT_COUNT>
1

> <PUBCHEM_CACTVS_TAUTO_COUNT>
-1

> <PUBCHEM_COORDINATE_TYPE>
1
5
255

> <PUBCHEM_BONDANNOTATIONS>
13  17  8
13  19  8
14  18  8
14  20  8
17  22  8
18  23  8
19  24  8
21  2  3
20  25  8
22  27  8
23  28  8
24  27  8
25  28  8
26  29  8
26  30  8
29  33  8
30  34  8
32  33  8
32  34  8

$$$$
3191
  -OEChem-08112611012D

 74 77  0     0  0  0  0  0  0999 V2000
    5.4641   -3.7500    0.0000 O   0  0  0  0  0  0  0  0  0  0  0  0
    8.0622    1.7500    0.0000 O   0  0  0  0  0  0  0  0  0  0  0  0
    5.4641   -0.7500    0.0000 N   0  0  0  0  0  0  0  0  0  0  0  0
    5.4641   -2.7500    0.0000 C   0  0  0  0  0  0  0  0  0  0  0  0
    6.3301   -2.2500    0.0000 C   0  0  0  0  0  0  0  0  0  0  0  0
    4.5981   -2.2500    0.0000 C   0  0  0  0  0  0  0  0  0  0  0  0
    6.3301   -1.2500    0.0000 C   0  0  0  0  0  0  0  0  0  0  0  0
    4.5981   -1.2500    0.0000 C   0  0  0  0  0  0  0  0  0  0  0  0
    5.4641    0.2500    0.0000 C   0  0  0  0  0  0  0  0  0  0  0  0
    6.3301    0.7500    0.0000 C   0  0  0  0  0  0  0  0  0  0  0  0
    4.5981   -4.2500    0.0000 C   0  0  0  0  0  0  0  0  0  0  0  0
    6.3301    1.7500    0.0000 C   0  0  0  0  0  0  0  0  0  0  0  0
    4.5981   -5.2500    0.0000 C   0  0  0  0  0  0  0  0  0  0  0  0
    3.7321   -3.7500    0.0000 C   0  0  0  0  0  0  0  0  0  0  0  0
    7.1962    2.2500    0.0000 C   0  0  0  0  0  0  0  0  0  0  0  0
    7.1962    6.2500    0.0000 C   0  0  0  0  0  0  0  0  0  0  0  0
    7.1962    3.2500    0.0000 C   0  0  0  0  0  0  0  0  0  0  0  0
    7.1962    5.2500    0.0000 C   0  0  0  0  0  0  0  0  0  0  0  0
    5.4641   -5.7500    0.0000 C   0  0  0  0  0  0  0  0  0  0  0  0
    3.7321   -2.7500    0.0000 C   0  0  0  0  0  0  0  0  0  0  0  0
    3.7321   -5.7500    0.0000 C   0  0  0  0  0  0  0  0  0  0  0  0
    2.8660   -4.2500    0.0000 C   0  0  0  0  0  0  0  0  0  0  0  0
    7.1962    7.2500    0.0000 C   0  0  0  0  0  0  0  0  0  0  0  0
    8.1962    6.2500    0.0000 C   0  0  0  0  0  0  0  0  0  0  0  0
    6.1962    6.2500    0.0000 C   0  0  0  0  0  0  0  0  0  0  0  0
    8.0622    3.7500    0.0000 C   0  0  0  0  0  0  0  0  0  0  0  0
    6.3301    3.7500    0.0000 C   0  0  0  0  0  0  0  0  0  0  0  0
    8.0622    4.7500    0.0000 C   0  0  0  0  0  0  0  0  0  0  0  0
    6.3301    4.7500    0.0000 C   0  0  0  0  0  0  0  0  0  0  0  0
    5.4641   -6.7500    0.0000 C   0  0  0  0  0  0  0  0  0  0  0  0
    2.8660   -2.2500    0.0000 C   0  0  0  0  0  0  0  0  0  0  0  0
    3.7321   -6.7500    0.0000 C   0  0  0  0  0  0  0  0  0  0  0  0
    2.0000   -3.7500    0.0000 C   0  0  0  0  0  0  0  0  0  0  0  0
    4.5981   -7.2500    0.0000 C   0  0  0  0  0  0  0  0  0  0  0  0
    2.0000   -2.7500    0.0000 C   0  0  0  0  0  0  0  0  0  0  0  0
    6.0010   -3.0600    0.0000 H   0  0  0  0  0  0  0  0  0  0  0  0
    6.5422   -2.8326    0.0000 H   0  0  0  0  0  0  0  0  0  0  0  0
    6.9407   -2.1423    0.0000 H   0  0  0  0  0  0  0  0  0  0  0  0
    3.9875   -2.1423    0.0000 H   0  0  0  0  0  0  0  0  0  0  0  0
    4.3860   -2.8326    0.0000 H   0  0  0  0  0  0  0  0  0  0  0  0
    6.9407   -1.3577    0.0000 H   0  0  0  0  0  0  0  0  0  0  0  0
    6.5422   -0.6674    0.0000 H   0  0  0  0  0  0  0  0  0  0  0  0
    4.3860   -0.6674    0.0000 H   0  0  0  0  0  0  0  0  0  0  0  0
    3.9875   -1.3577    0.0000 H   0  0  0  0  0  0  0  0  0  0  0  0
    5.2521    0.8326    0.0000 H   0  0  0  0  0  0  0  0  0  0  0  0
    4.8535    0.1423    0.0000 H   0  0  0  0  0  0  0  0  0  0  0  0
    6.5422    0.1674    0.0000 H   0  0  0  0  0  0  0  0  0  0  0  0
    6.9407    0.8577    0.0000 H   0  0  0  0  0  0  0  0  0  0  0  0
    4.5981   -3.6300    0.0000 H   0  0  0  0  0  0  0  0  0  0  0  0
    6.1181    2.3326    0.0000 H   0  0  0  0  0  0  0  0  0  0  0  0
    5.7196    1.6423    0.0000 H   0  0  0  0  0  0  0  0  0  0  0  0
    6.0010   -5.4400    0.0000 H   0  0  0  0  0  0  0  0  0  0  0  0
    4.2690   -2.4400    0.0000 H   0  0  0  0  0  0  0  0  0  0  0  0
    3.1951   -5.4400    0.0000 H   0  0  0  0  0  0  0  0  0  0  0  0
    2.8660   -4.8700    0.0000 H   0  0  0  0  0  0  0  0  0  0  0  0
    7.8162    7.2500    0.0000 H   0  0  0  0  0  0  0  0  0  0  0  0
    7.1962    7.8700    0.0000 H   0  0  0  0  0  0  0  0  0  0  0  0
    6.5762    7.2500    0.0000 H   0  0  0  0  0  0  0  0  0  0  0  0
    8.1962    5.6300    0.0000 H   0  0  0  0  0  0  0  0  0  0  0  0
    8.8162    6.2500    0.0000 H   0  0  0  0  0  0  0  0  0  0  0  0
    8.1962    6.8700    0.0000 H   0  0  0  0  0  0  0  0  0  0  0  0
    6.1962    6.8700    0.0000 H   0  0  0  0  0  0  0  0  0  0  0  0
    5.5762    6.2500    0.0000 H   0  0  0  0  0  0  0  0  0  0  0  0
    6.1962    5.6300    0.0000 H   0  0  0  0  0  0  0  0  0  0  0  0
    8.5991    5.0600    0.0000 H   0  0  0  0  0  0  0  0  0  0  0  0
    5.7932    5.0600    0.0000 H   0  0  0  0  0  0  0  0  0  0  0  0
    8.5991    3.4400    0.0000 H   0  0  0  0  0  0  0  0  0  0  0  0
    5.7932    3.4400    0.0000 H   0  0  0  0  0  0  0  0  0  0  0  0
    6.0010   -7.0600    0.0000 H   0  0  0  0  0  0  0  0  0  0  0  0
    2.8660   -1.6300    0.0000 H   0  0  0  0  0  0  0  0  0  0  0  0
    3.1951   -7.0600    0.0000 H   0  0  0  0  0  0  0  0  0  0  0  0
    1.4631   -4.0600    0.0000 H   0  0  0  0  0  0  0  0  0  0  0  0
    4.5981   -7.8700    0.0000 H   0  0  0  0  0  0  0  0  0  0  0  0
    1.4631   -2.4400    0.0000 H   0  0  0  0  0  0  0  0  0  0  0  0
  1  4  1  0  0  0  0
  1 11  1  0  0  0  0
  2 15  2  0  0  0  0
  3  7  1  0  0  0  0
  3  8  1  0  0  0  0
  3  9  1  0  0  0  0
  4  5  1  0  0  0  0
  4  6  1  0  0  0  0
  4 36  1  0  0  0  0
  5  7  1  0  0  0  0
  5 37  1  0  0  0  0
  5 38  1  0  0  0  0
  6  8  1  0  0  0  0
  6 39  1  0  0  0  0
  6 40  1  0  0  0  0
  7 41  1  0  0  0  0
  7 42  1  0  0  0  0
  8 43  1  0  0  0  0
  8 44  1  0  0  0  0
  9 10  1  0  0  0  0
  9 45  1  0  0  0  0
  9 46  1  0  0  0  0
 10 12  1  0  0  0  0
 10 47  1  0  0  0  0
 10 48  1  0  0  0  0
 11 13  1  0  0  0  0
 11 14  1  0  0  0  0
 11 49  1  0  0  0  0
 12 15  1  0  0  0  0
 12 50  1  0  0  0  0
 12 51  1  0  0  0  0
 13 19  2  0  0  0  0
 13 21  1  0  0  0  0
 14 20  2  0  0  0  0
 14 22  1  0  0  0  0
 15 17  1  0  0  0  0
 16 18  1  0  0  0  0
 16 23  1  0  0  0  0
 16 24  1  0  0  0  0
 16 25  1  0  0  0  0
 17 26  2  0  0  0  0
 17 27  1  0  0  0  0
 18 28  2  0  0  0  0
 18 29  1  0  0  0  0
 19 30  1  0  0  0  0
 19 52  1  0  0  0  0
 20 31  1  0  0  0  0
 20 53  1  0  0  0  0
 21 32  2  0  0  0  0
 21 54  1  0  0  0  0
 22 33  2  0  0  0  0
 22 55  1  0  0  0  0
 23 56  1  0  0  0  0
 23 57  1  0  0  0  0
 23 58  1  0  0  0  0
 24 59  1  0  0  0  0
 24 60  1  0  0  0  0
 24 61  1  0  0  0  0
 25 62  1  0  0  0  0
 25 63  1  0  0  0  0
 25 64  1  0  0  0  0
 26 28  1  0  0  0  0
 26 67  1  0  0  0  0
 27 29  2  0  0  0  0
 27 68  1  0  0  0  0
 28 65  1  0  0  0  0
 29 66  1  0  0  0  0
 30 34  2  0  0  0  0
 30 69  1  0  0  0  0
 31 35  2  0  0  0  0
 31 70  1  0  0  0  0
 32 34  1  0  0  0  0
 32 71  1  0  0  0  0
 33 35  1  0  0  0  0
 33 72  1  0  0  0  0
 34 73  1  0  0  0  0
 35 74  1  0  0  0  0
M  END
> <PUBCHEM_COMPOUND_CID>
3191

> <PUBCHEM_COMPOUND_CANONICALIZED>
1

> <PUBCHEM_CACTVS_COMPLEXITY>
594

> <PUBCHEM_CACTVS_HBOND_ACCEPTOR>
3

> <PUBCHEM_CACTVS_HBOND_DONOR>
0

> <PUBCHEM_CACTVS_ROTATABLE_BOND>
10

> <PUBCHEM_CACTVS_SUBSKEYS>
AAADcfB+MAAAAAAAAAAAAAAAAAAAAAAAAAA8YMEAAAAAAAABUAAAHgAAAAAADhThmAYyAIMABACIAqBSAAACAAAkAAAIiAEICMgIJjKAtRiGMQAmwAGIqYecyOCPwAAAAAAAAACAAAAAAAAAAAAAAAAAAA==

> <PUBCHEM_IUPAC_OPENEYE_NAME>
4-(4-benzhydryloxy-1-piperidyl)-1-(4-tert-butylphenyl)butan-1-one

> <PUBCHEM_IUPAC_CAS_NAME>
1-(4-tert-butylphenyl)-4-[4-(diphenylmethyl)oxy-1-piperidinyl]-1-butanone

> <PUBCHEM_IUPAC_NAME_MARKUP>
4-(4-benzhydryloxypiperidin-1-yl)-1-(4-<I>tert</I>-butylphenyl)butan-1-one

> <PUBCHEM_IUPAC_NAME>
4-(4-benzhydryloxypiperidin-1-yl)-1-(4-tert-butylphenyl)butan-1-one

> <PUBCHEM_IUPAC_SYSTEMATIC_NAME>
1-(4-tert-butylphenyl)-4-[4-(diphenylmethyl)oxypiperidin-1-yl]butan-1-one

> <PUBCHEM_IUPAC_TRADITIONAL_NAME>
4-(4-benzhydryloxypiperidino)-1-(4-tert-butylphenyl)butan-1-one

> <PUBCHEM_IUPAC_INCHI>
InChI=1S/C32H39NO2/c1-32(2,3)28-18-16-25(17-19-28)30(34)15-10-22-33-23-20-29(21-24-33)35-31(26-11-6-4-7-12-26)27-13-8-5-9-14-27/h4-9,11-14,16-19,29,31H,10,15,20-24H2,1-3H3

> <PUBCHEM_IUPAC_INCHIKEY>
MJJALKDDGIKVBE-UHFFFAOYSA-N

> <PUBCHEM_XLOGP3_AA>
7.2

> <PUBCHEM_EXACT_MASS>
469.298079487

> <PUBCHEM_MOLECULAR_FORMULA>
C32H39NO2

> <PUBCHEM_MOLECULAR_WEIGHT>
469.7

> <PUBCHEM_SMILES>
CC(C)(C)C1=CC=C(C=C1)C(=O)CCCN2CCC(CC2)OC(C3=CC=CC=C3)C4=CC=CC=C4

> <PUBCHEM_CONNECTIVITY_SMILES>
CC(C)(C)C1=CC=C(C=C1)C(=O)CCCN2CCC(CC2)OC(C3=CC=CC=C3)C4=CC=CC=C4

> <PUBCHEM_CACTVS_TPSA>
29.5

> <PUBCHEM_MONOISOTOPIC_WEIGHT>
469.298079487

> <PUBCHEM_TOTAL_CHARGE>
0

> <PUBCHEM_HEAVY_ATOM_COUNT>
35

> <PUBCHEM_ATOM_DEF_STEREO_COUNT>
0

> <PUBCHEM_ATOM_UDEF_STEREO_COUNT>
0

> <PUBCHEM_BOND_DEF_STEREO_COUNT>
0

> <PUBCHEM_BOND_UDEF_STEREO_COUNT>
0

> <PUBCHEM_ISOTOPIC_ATOM_COUNT>
0

> <PUBCHEM_COMPONENT_COUNT>
1

> <PUBCHEM_CACTVS_TAUTO_COUNT>
-1

> <PUBCHEM_COORDINATE_TYPE>
1
5
255

> <PUBCHEM_BONDANNOTATIONS>
13  19  8
13  21  8
14  20  8
14  22  8
17  26  8
17  27  8
18  28  8
18  29  8
19  30  8
20  31  8
21  32  8
22  33  8
26  28  8
27  29  8
30  34  8
31  35  8
32  34  8
33  35  8

$$$$
133017
  -OEChem-08112611012D

 56 60  0     0  0  0  0  0  0999 V2000
    2.0000    3.7317    0.0000 Cl  0  0  0  0  0  0  0  0  0  0  0  0
    5.8374   -0.5953    0.0000 N   0  0  0  0  0  0  0  0  0  0  0  0
    7.4909    2.1184    0.0000 N   0  0  0  0  0  0  0  0  0  0  0  0
    8.4355   -2.0953    0.0000 N   0  0  0  0  0  0  0  0  0  0  0  0
    5.8374    1.4047    0.0000 C   0  0  0  0  0  0  0  0  0  0  0  0
    4.9714    0.9047    0.0000 C   0  0  0  0  0  0  0  0  0  0  0  0
    6.7034    0.9047    0.0000 C   0  0  0  0  0  0  0  0  0  0  0  0
    4.9714   -0.0953    0.0000 C   0  0  0  0  0  0  0  0  0  0  0  0
    6.7034   -0.0953    0.0000 C   0  0  0  0  0  0  0  0  0  0  0  0
    5.8374    2.4047    0.0000 C   0  0  0  0  0  0  0  0  0  0  0  0
    5.8374   -1.5953    0.0000 C   0  0  0  0  0  0  0  0  0  0  0  0
    4.9365    2.8386    0.0000 C   0  0  0  0  0  0  0  0  0  0  0  0
    6.7384    2.8386    0.0000 C   0  0  0  0  0  0  0  0  0  0  0  0
    4.7139    3.8135    0.0000 C   0  0  0  0  0  0  0  0  0  0  0  0
    5.3374    4.5953    0.0000 C   0  0  0  0  0  0  0  0  0  0  0  0
    6.3374    4.5953    0.0000 C   0  0  0  0  0  0  0  0  0  0  0  0
    6.9609    3.8135    0.0000 C   0  0  0  0  0  0  0  0  0  0  0  0
    6.7034   -2.0953    0.0000 C   0  0  0  0  0  0  0  0  0  0  0  0
    4.1839    2.1184    0.0000 C   0  0  0  0  0  0  0  0  0  0  0  0
    3.7234    4.1359    0.0000 C   0  0  0  0  0  0  0  0  0  0  0  0
    7.9514    4.1358    0.0000 C   0  0  0  0  0  0  0  0  0  0  0  0
    3.1862    2.4178    0.0000 C   0  0  0  0  0  0  0  0  0  0  0  0
    2.9544    3.4333    0.0000 C   0  0  0  0  0  0  0  0  0  0  0  0
    6.7034   -3.0953    0.0000 C   0  0  0  0  0  0  0  0  0  0  0  0
    7.5694   -1.5953    0.0000 C   0  0  0  0  0  0  0  0  0  0  0  0
    8.7204    3.4332    0.0000 C   0  0  0  0  0  0  0  0  0  0  0  0
    8.4886    2.4177    0.0000 C   0  0  0  0  0  0  0  0  0  0  0  0
    7.5694   -3.5953    0.0000 C   0  0  0  0  0  0  0  0  0  0  0  0
    8.4355   -3.0953    0.0000 C   0  0  0  0  0  0  0  0  0  0  0  0
    7.5694   -4.5953    0.0000 C   0  0  0  0  0  0  0  0  0  0  0  0
    4.7593    1.4873    0.0000 H   0  0  0  0  0  0  0  0  0  0  0  0
    4.3608    0.7970    0.0000 H   0  0  0  0  0  0  0  0  0  0  0  0
    7.3140    0.7970    0.0000 H   0  0  0  0  0  0  0  0  0  0  0  0
    6.9155    1.4873    0.0000 H   0  0  0  0  0  0  0  0  0  0  0  0
    4.3608    0.0124    0.0000 H   0  0  0  0  0  0  0  0  0  0  0  0
    4.7593   -0.6779    0.0000 H   0  0  0  0  0  0  0  0  0  0  0  0
    6.9155   -0.6779    0.0000 H   0  0  0  0  0  0  0  0  0  0  0  0
    7.3140    0.0123    0.0000 H   0  0  0  0  0  0  0  0  0  0  0  0
    5.2268   -1.4877    0.0000 H   0  0  0  0  0  0  0  0  0  0  0  0
    5.6253   -2.1779    0.0000 H   0  0  0  0  0  0  0  0  0  0  0  0
    5.4754    5.1998    0.0000 H   0  0  0  0  0  0  0  0  0  0  0  0
    4.7788    4.8643    0.0000 H   0  0  0  0  0  0  0  0  0  0  0  0
    6.8960    4.8643    0.0000 H   0  0  0  0  0  0  0  0  0  0  0  0
    6.1995    5.1998    0.0000 H   0  0  0  0  0  0  0  0  0  0  0  0
    4.3288    1.5156    0.0000 H   0  0  0  0  0  0  0  0  0  0  0  0
    3.5925    4.7419    0.0000 H   0  0  0  0  0  0  0  0  0  0  0  0
    8.0824    4.7418    0.0000 H   0  0  0  0  0  0  0  0  0  0  0  0
    2.7333    1.9943    0.0000 H   0  0  0  0  0  0  0  0  0  0  0  0
    6.1665   -3.4053    0.0000 H   0  0  0  0  0  0  0  0  0  0  0  0
    7.5695   -0.9753    0.0000 H   0  0  0  0  0  0  0  0  0  0  0  0
    9.3122    3.6183    0.0000 H   0  0  0  0  0  0  0  0  0  0  0  0
    8.9415    1.9943    0.0000 H   0  0  0  0  0  0  0  0  0  0  0  0
    8.9724   -3.4053    0.0000 H   0  0  0  0  0  0  0  0  0  0  0  0
    6.9494   -4.5953    0.0000 H   0  0  0  0  0  0  0  0  0  0  0  0
    7.5694   -5.2153    0.0000 H   0  0  0  0  0  0  0  0  0  0  0  0
    8.1894   -4.5953    0.0000 H   0  0  0  0  0  0  0  0  0  0  0  0
  1 23  1  0  0  0  0
  2  8  1  0  0  0  0
  2  9  1  0  0  0  0
  2 11  1  0  0  0  0
  3 13  1  0  0  0  0
  3 27  2  0  0  0  0
  4 25  1  0  0  0  0
  4 29  2  0  0  0  0
  5  6  1  0  0  0  0
  5  7  1  0  0  0  0
  5 10  2  0  0  0  0
  6  8  1  0  0  0  0
  6 31  1  0  0  0  0
  6 32  1  0  0  0  0
  7  9  1  0  0  0  0
  7 33  1  0  0  0  0
  7 34  1  0  0  0  0
  8 35  1  0  0  0  0
  8 36  1  0  0  0  0
  9 37  1  0  0  0  0
  9 38  1  0  0  0  0
 10 12  1  0  0  0  0
 10 13  1  0  0  0  0
 11 18  1  0  0  0  0
 11 39  1  0  0  0  0
 11 40  1  0  0  0  0
 12 14  2  0  0  0  0
 12 19  1  0  0  0  0
 13 17  2  0  0  0  0
 14 15  1  0  0  0  0
 14 20  1  0  0  0  0
 15 16  1  0  0  0  0
 15 41  1  0  0  0  0
 15 42  1  0  0  0  0
 16 17  1  0  0  0  0
 16 43  1  0  0  0  0
 16 44  1  0  0  0  0
 17 21  1  0  0  0  0
 18 24  1  0  0  0  0
 18 25  2  0  0  0  0
 19 22  2  0  0  0  0
 19 45  1  0  0  0  0
 20 23  2  0  0  0  0
 20 46  1  0  0  0  0
 21 26  2  0  0  0  0
 21 47  1  0  0  0  0
 22 23  1  0  0  0  0
 22 48  1  0  0  0  0
 24 28  2  0  0  0  0
 24 49  1  0  0  0  0
 25 50  1  0  0  0  0
 26 27  1  0  0  0  0
 26 51  1  0  0  0  0
 27 52  1  0  0  0  0
 28 29  1  0  0  0  0
 28 30  1  0  0  0  0
 29 53  1  0  0  0  0
 30 54  1  0  0  0  0
 30 55  1  0  0  0  0
 30 56  1  0  0  0  0
M  END
> <PUBCHEM_COMPOUND_CID>
133017

> <PUBCHEM_COMPOUND_CANONICALIZED>
1

> <PUBCHEM_CACTVS_COMPLEXITY>
609

> <PUBCHEM_CACTVS_HBOND_ACCEPTOR>
3

> <PUBCHEM_CACTVS_HBOND_DONOR>
0

> <PUBCHEM_CACTVS_ROTATABLE_BOND>
2

> <PUBCHEM_CACTVS_SUBSKEYS>
AAADceB7AAAEAAAAAAAAAAAAAAAAAAAAAAA8WLEABgAAAAAB8AAAHAIAAAAADArBHiQ+gJMIEACgAzRnRACCgCAxByAI2CA4ZpgIIOLB05GEIAhggADIyAcQgMAOhAAAIAAQAAAIAABAACAAAAAAAAAAAA==

> <PUBCHEM_IUPAC_OPENEYE_NAME>
13-chloro-2-[1-[(5-methyl-3-pyridyl)methyl]-4-piperidylidene]-4-azatricyclo[9.4.0.03,8]pentadeca-1(11),3(8),4,6,12,14-hexaene

> <PUBCHEM_IUPAC_CAS_NAME>
13-chloro-2-[1-[(5-methyl-3-pyridinyl)methyl]-4-piperidinylidene]-4-azatricyclo[9.4.0.03,8]pentadeca-1(11),3(8),4,6,12,14-hexaene

> <PUBCHEM_IUPAC_NAME_MARKUP>
13-chloro-2-[1-[(5-methyl-3-pyridinyl)methyl]piperidin-4-ylidene]-4-azatricyclo[9.4.0.0<SUP>3,8</SUP>]pentadeca-1(11),3(8),4,6,12,14-hexaene

> <PUBCHEM_IUPAC_NAME>
13-chloro-2-[1-[(5-methyl-3-pyridinyl)methyl]piperidin-4-ylidene]-4-azatricyclo[9.4.0.03,8]pentadeca-1(11),3(8),4,6,12,14-hexaene

> <PUBCHEM_IUPAC_SYSTEMATIC_NAME>
13-chloranyl-2-[1-[(5-methyl-3-pyridinyl)methyl]piperidin-4-ylidene]-4-azatricyclo[9.4.0.03,8]pentadeca-1(11),3(8),4,6,12,14-hexaene

> <PUBCHEM_IUPAC_TRADITIONAL_NAME>
13-chloro-2-[1-[(5-methyl-3-pyridyl)methyl]-4-piperidylidene]-4-azatricyclo[9.4.0.03,8]pentadeca-1(11),3(8),4,6,12,14-hexaene

> <PUBCHEM_IUPAC_INCHI>
InChI=1S/C26H26ClN3/c1-18-13-19(16-28-15-18)17-30-11-8-20(9-12-30)25-24-7-6-23(27)14-22(24)5-4-21-3-2-10-29-26(21)25/h2-3,6-7,10,13-16H,4-5,8-9,11-12,17H2,1H3

> <PUBCHEM_IUPAC_INCHIKEY>
WUZYKBABMWJHDL-UHFFFAOYSA-N

> <PUBCHEM_XLOGP3>
5.8

> <PUBCHEM_EXACT_MASS>
415.1815255

> <PUBCHEM_MOLECULAR_FORMULA>
C26H26ClN3

> <PUBCHEM_MOLECULAR_WEIGHT>
416.0

> <PUBCHEM_SMILES>
CC1=CC(=CN=C1)CN2CCC(=C3C4=C(CCC5=C3N=CC=C5)C=C(C=C4)Cl)CC2

> <PUBCHEM_CONNECTIVITY_SMILES>
CC1=CC(=CN=C1)CN2CCC(=C3C4=C(CCC5=C3N=CC=C5)C=C(C=C4)Cl)CC2

> <PUBCHEM_CACTVS_TPSA>
29

> <PUBCHEM_MONOISOTOPIC_WEIGHT>
415.1815255

> <PUBCHEM_TOTAL_CHARGE>
0

> <PUBCHEM_HEAVY_ATOM_COUNT>
30

> <PUBCHEM_ATOM_DEF_STEREO_COUNT>
0

> <PUBCHEM_ATOM_UDEF_STEREO_COUNT>
0

> <PUBCHEM_BOND_DEF_STEREO_COUNT>
0

> <PUBCHEM_BOND_UDEF_STEREO_COUNT>
0

> <PUBCHEM_ISOTOPIC_ATOM_COUNT>
0

> <PUBCHEM_COMPONENT_COUNT>
1

> <PUBCHEM_CACTVS_TAUTO_COUNT>
-1

> <PUBCHEM_COORDINATE_TYPE>
1
5
255

> <PUBCHEM_BONDANNOTATIONS>
12  14  8
12  19  8
13  17  8
14  20  8
17  21  8
18  24  8
18  25  8
19  22  8
20  23  8
21  26  8
22  23  8
24  28  8
26  27  8
28  29  8
3  13  8
3  27  8
4  25  8
4  29  8

$$$$
185460
  -OEChem-08112611012D

 71 74  0     0  0  0  0  0  0999 V2000
    4.6318    1.8106    0.0000 O   0  0  0  0  0  0  0  0  0  0  0  0
   15.2619   -3.3715    0.0000 O   0  0  0  0  0  0  0  0  0  0  0  0
   15.2619   -1.6394    0.0000 O   0  0  0  0  0  0  0  0  0  0  0  0
    8.2619   -1.6394    0.0000 N   0  0  0  0  0  0  0  0  0  0  0  0
    4.6783   -0.8347    0.0000 N   0  0  0  0  0  0  0  0  0  0  0  0
    4.6783   -2.4442    0.0000 N   0  0  0  0  0  0  0  0  0  0  0  0
    6.2619   -1.6394    0.0000 C   0  0  0  0  0  0  0  0  0  0  0  0
    6.7619   -2.5055    0.0000 C   0  0  0  0  0  0  0  0  0  0  0  0
    6.7619   -0.7734    0.0000 C   0  0  0  0  0  0  0  0  0  0  0  0
    7.7619   -2.5055    0.0000 C   0  0  0  0  0  0  0  0  0  0  0  0
    7.7619   -0.7734    0.0000 C   0  0  0  0  0  0  0  0  0  0  0  0
    5.2619   -1.6394    0.0000 C   0  0  0  0  0  0  0  0  0  0  0  0
    9.2619   -1.6394    0.0000 C   0  0  0  0  0  0  0  0  0  0  0  0
    9.7619   -2.5055    0.0000 C   0  0  0  0  0  0  0  0  0  0  0  0
    3.7321   -1.1394    0.0000 C   0  0  0  0  0  0  0  0  0  0  0  0
    4.9889    0.1158    0.0000 C   0  0  0  0  0  0  0  0  0  0  0  0
    3.7321   -2.1394    0.0000 C   0  0  0  0  0  0  0  0  0  0  0  0
   10.7619   -2.5055    0.0000 C   0  0  0  0  0  0  0  0  0  0  0  0
    4.3211    0.8601    0.0000 C   0  0  0  0  0  0  0  0  0  0  0  0
    2.8660   -0.6394    0.0000 C   0  0  0  0  0  0  0  0  0  0  0  0
    2.8660   -2.6394    0.0000 C   0  0  0  0  0  0  0  0  0  0  0  0
   11.2619   -3.3715    0.0000 C   0  0  0  0  0  0  0  0  0  0  0  0
   11.2619   -1.6394    0.0000 C   0  0  0  0  0  0  0  0  0  0  0  0
   12.7619   -2.5055    0.0000 C   0  0  0  0  0  0  0  0  0  0  0  0
   13.7619   -2.5055    0.0000 C   0  0  0  0  0  0  0  0  0  0  0  0
    2.0000   -1.1394    0.0000 C   0  0  0  0  0  0  0  0  0  0  0  0
    2.0000   -2.1394    0.0000 C   0  0  0  0  0  0  0  0  0  0  0  0
   12.2619   -3.3715    0.0000 C   0  0  0  0  0  0  0  0  0  0  0  0
   12.2619   -1.6394    0.0000 C   0  0  0  0  0  0  0  0  0  0  0  0
   13.7619   -3.5055    0.0000 C   0  0  0  0  0  0  0  0  0  0  0  0
   13.7619   -1.5055    0.0000 C   0  0  0  0  0  0  0  0  0  0  0  0
   14.7619   -2.5055    0.0000 C   0  0  0  0  0  0  0  0  0  0  0  0
    3.9639    2.5549    0.0000 C   0  0  0  0  0  0  0  0  0  0  0  0
    4.2746    3.5055    0.0000 C   0  0  0  0  0  0  0  0  0  0  0  0
    5.9519   -2.1764    0.0000 H   0  0  0  0  0  0  0  0  0  0  0  0
    6.1793   -2.7175    0.0000 H   0  0  0  0  0  0  0  0  0  0  0  0
    6.8695   -3.1160    0.0000 H   0  0  0  0  0  0  0  0  0  0  0  0
    6.8695   -0.1628    0.0000 H   0  0  0  0  0  0  0  0  0  0  0  0
    6.1793   -0.5614    0.0000 H   0  0  0  0  0  0  0  0  0  0  0  0
    7.6542   -3.1160    0.0000 H   0  0  0  0  0  0  0  0  0  0  0  0
    8.3445   -2.7175    0.0000 H   0  0  0  0  0  0  0  0  0  0  0  0
    8.3445   -0.5614    0.0000 H   0  0  0  0  0  0  0  0  0  0  0  0
    7.6542   -0.1628    0.0000 H   0  0  0  0  0  0  0  0  0  0  0  0
    9.8445   -1.4274    0.0000 H   0  0  0  0  0  0  0  0  0  0  0  0
    9.1542   -1.0289    0.0000 H   0  0  0  0  0  0  0  0  0  0  0  0
    9.1793   -2.7175    0.0000 H   0  0  0  0  0  0  0  0  0  0  0  0
    9.8695   -3.1160    0.0000 H   0  0  0  0  0  0  0  0  0  0  0  0
    5.5359   -0.1762    0.0000 H   0  0  0  0  0  0  0  0  0  0  0  0
    5.3715    0.6037    0.0000 H   0  0  0  0  0  0  0  0  0  0  0  0
    3.7742    1.1521    0.0000 H   0  0  0  0  0  0  0  0  0  0  0  0
    3.9385    0.3722    0.0000 H   0  0  0  0  0  0  0  0  0  0  0  0
    2.8660   -0.0194    0.0000 H   0  0  0  0  0  0  0  0  0  0  0  0
    2.8660   -3.2594    0.0000 H   0  0  0  0  0  0  0  0  0  0  0  0
   10.9519   -3.9084    0.0000 H   0  0  0  0  0  0  0  0  0  0  0  0
   10.9519   -1.1025    0.0000 H   0  0  0  0  0  0  0  0  0  0  0  0
    1.4631   -0.8294    0.0000 H   0  0  0  0  0  0  0  0  0  0  0  0
    1.4631   -2.4494    0.0000 H   0  0  0  0  0  0  0  0  0  0  0  0
   12.5719   -3.9084    0.0000 H   0  0  0  0  0  0  0  0  0  0  0  0
   12.5719   -1.1025    0.0000 H   0  0  0  0  0  0  0  0  0  0  0  0
   13.1419   -3.5055    0.0000 H   0  0  0  0  0  0  0  0  0  0  0  0
   13.7619   -4.1255    0.0000 H   0  0  0  0  0  0  0  0  0  0  0  0
   14.3819   -3.5055    0.0000 H   0  0  0  0  0  0  0  0  0  0  0  0
   14.3819   -1.5055    0.0000 H   0  0  0  0  0  0  0  0  0  0  0  0
   13.7619   -0.8855    0.0000 H   0  0  0  0  0  0  0  0  0  0  0  0
   13.1419   -1.5055    0.0000 H   0  0  0  0  0  0  0  0  0  0  0  0
    3.4170    2.8470    0.0000 H   0  0  0  0  0  0  0  0  0  0  0  0
    3.5814    2.0670    0.0000 H   0  0  0  0  0  0  0  0  0  0  0  0
    4.8639    3.3129    0.0000 H   0  0  0  0  0  0  0  0  0  0  0  0
    4.4672    4.0948    0.0000 H   0  0  0  0  0  0  0  0  0  0  0  0
    3.6853    3.6981    0.0000 H   0  0  0  0  0  0  0  0  0  0  0  0
   15.8819   -3.3715    0.0000 H   0  0  0  0  0  0  0  0  0  0  0  0
  1 19  1  0  0  0  0
  1 33  1  0  0  0  0
  2 32  1  0  0  0  0
  2 71  1  0  0  0  0
  3 32  2  0  0  0  0
  4 10  1  0  0  0  0
  4 11  1  0  0  0  0
  4 13  1  0  0  0  0
  5 12  1  0  0  0  0
  5 15  1  0  0  0  0
  5 16  1  0  0  0  0
  6 12  2  0  0  0  0
  6 17  1  0  0  0  0
  7  8  1  0  0  0  0
  7  9  1  0  0  0  0
  7 12  1  0  0  0  0
  7 35  1  0  0  0  0
  8 10  1  0  0  0  0
  8 36  1  0  0  0  0
  8 37  1  0  0  0  0
  9 11  1  0  0  0  0
  9 38  1  0  0  0  0
  9 39  1  0  0  0  0
 10 40  1  0  0  0  0
 10 41  1  0  0  0  0
 11 42  1  0  0  0  0
 11 43  1  0  0  0  0
 13 14  1  0  0  0  0
 13 44  1  0  0  0  0
 13 45  1  0  0  0  0
 14 18  1  0  0  0  0
 14 46  1  0  0  0  0
 14 47  1  0  0  0  0
 15 17  1  0  0  0  0
 15 20  2  0  0  0  0
 16 19  1  0  0  0  0
 16 48  1  0  0  0  0
 16 49  1  0  0  0  0
 17 21  2  0  0  0  0
 18 22  2  0  0  0  0
 18 23  1  0  0  0  0
 19 50  1  0  0  0  0
 19 51  1  0  0  0  0
 20 26  1  0  0  0  0
 20 52  1  0  0  0  0
 21 27  1  0  0  0  0
 21 53  1  0  0  0  0
 22 28  1  0  0  0  0
 22 54  1  0  0  0  0
 23 29  2  0  0  0  0
 23 55  1  0  0  0  0
 24 25  1  0  0  0  0
 24 28  2  0  0  0  0
 24 29  1  0  0  0  0
 25 30  1  0  0  0  0
 25 31  1  0  0  0  0
 25 32  1  0  0  0  0
 26 27  2  0  0  0  0
 26 56  1  0  0  0  0
 27 57  1  0  0  0  0
 28 58  1  0  0  0  0
 29 59  1  0  0  0  0
 30 60  1  0  0  0  0
 30 61  1  0  0  0  0
 30 62  1  0  0  0  0
 31 63  1  0  0  0  0
 31 64  1  0  0  0  0
 31 65  1  0  0  0  0
 33 34  1  0  0  0  0
 33 66  1  0  0  0  0
 33 67  1  0  0  0  0
 34 68  1  0  0  0  0
 34 69  1  0  0  0  0
 34 70  1  0  0  0  0
M  END
> <PUBCHEM_COMPOUND_CID>
185460

> <PUBCHEM_COMPOUND_CANONICALIZED>
1

> <PUBCHEM_CACTVS_COMPLEXITY>
641

> <PUBCHEM_CACTVS_HBOND_ACCEPTOR>
5

> <PUBCHEM_CACTVS_HBOND_DONOR>
1

> <PUBCHEM_CACTVS_ROTATABLE_BOND>
10

> <PUBCHEM_CACTVS_SUBSKEYS>
AAADcfB7MAAAAAAAAAAAAAAAAAAAAWAAAAA8YIAAAAAAAFgB9AAAHgAACAAADwjhnwYz2LcMFgCoAybybACCgC0hEqAJ2CE4dJiKaLLAnZGXYAhswAPYyCeYyOCPwAAAAAAAACCAAAAAAAAAQAAAAAAAAA==

> <PUBCHEM_IUPAC_OPENEYE_NAME>
2-[4-[2-[4-[1-(2-ethoxyethyl)benzimidazol-2-yl]-1-piperidyl]ethyl]phenyl]-2-methyl-propanoic acid

> <PUBCHEM_IUPAC_CAS_NAME>
2-[4-[2-[4-[1-(2-ethoxyethyl)-2-benzimidazolyl]-1-piperidinyl]ethyl]phenyl]-2-methylpropanoic acid

> <PUBCHEM_IUPAC_NAME_MARKUP>
2-[4-[2-[4-[1-(2-ethoxyethyl)benzimidazol-2-yl]piperidin-1-yl]ethyl]phenyl]-2-methylpropanoic acid

> <PUBCHEM_IUPAC_NAME>
2-[4-[2-[4-[1-(2-ethoxyethyl)benzimidazol-2-yl]piperidin-1-yl]ethyl]phenyl]-2-methylpropanoic acid

> <PUBCHEM_IUPAC_SYSTEMATIC_NAME>
2-[4-[2-[4-[1-(2-ethoxyethyl)benzimidazol-2-yl]piperidin-1-yl]ethyl]phenyl]-2-methyl-propanoic acid

> <PUBCHEM_IUPAC_TRADITIONAL_NAME>
2-[4-[2-[4-[1-(2-ethoxyethyl)benzimidazol-2-yl]piperidino]ethyl]phenyl]-2-methyl-propionic acid

> <PUBCHEM_IUPAC_INCHI>
InChI=1S/C28H37N3O3/c1-4-34-20-19-31-25-8-6-5-7-24(25)29-26(31)22-14-17-30(18-15-22)16-13-21-9-11-23(12-10-21)28(2,3)27(32)33/h5-12,22H,4,13-20H2,1-3H3,(H,32,33)

> <PUBCHEM_IUPAC_INCHIKEY>
ACCMWZWAEFYUGZ-UHFFFAOYSA-N

> <PUBCHEM_XLOGP3_AA>
2.3

> <PUBCHEM_EXACT_MASS>
463.28349205

> <PUBCHEM_MOLECULAR_FORMULA>
C28H37N3O3

> <PUBCHEM_MOLECULAR_WEIGHT>
463.6

> <PUBCHEM_SMILES>
CCOCCN1C2=CC=CC=C2N=C1C3CCN(CC3)CCC4=CC=C(C=C4)C(C)(C)C(=O)O

> <PUBCHEM_CONNECTIVITY_SMILES>
CCOCCN1C2=CC=CC=C2N=C1C3CCN(CC3)CCC4=CC=C(C=C4)C(C)(C)C(=O)O

> <PUBCHEM_CACTVS_TPSA>
67.6

> <PUBCHEM_MONOISOTOPIC_WEIGHT>
463.28349205

> <PUBCHEM_TOTAL_CHARGE>
0

> <PUBCHEM_HEAVY_ATOM_COUNT>
34

> <PUBCHEM_ATOM_DEF_STEREO_COUNT>
0

> <PUBCHEM_ATOM_UDEF_STEREO_COUNT>
0

> <PUBCHEM_BOND_DEF_STEREO_COUNT>
0

> <PUBCHEM_BOND_UDEF_STEREO_COUNT>
0

> <PUBCHEM_ISOTOPIC_ATOM_COUNT>
0

> <PUBCHEM_COMPONENT_COUNT>
1

> <PUBCHEM_CACTVS_TAUTO_COUNT>
-1

> <PUBCHEM_COORDINATE_TYPE>
1
5
255

> <PUBCHEM_BONDANNOTATIONS>
15  17  8
15  20  8
17  21  8
18  22  8
18  23  8
20  26  8
21  27  8
22  28  8
23  29  8
24  28  8
24  29  8
26  27  8
5  12  8
5  15  8
6  12  8
6  17  8

$$$$
2267
  -OEChem-08112611012D

 51 54  0     1  0  0  0  0  0999 V2000
    8.1301   -3.3387    0.0000 Cl  0  0  0  0  0  0  0  0  0  0  0  0
    4.6660    2.6613    0.0000 O   0  0  0  0  0  0  0  0  0  0  0  0
    8.5452    2.3236    0.0000 N   0  0  3  0  0  0  0  0  0  0  0  0
    5.5321    1.1613    0.0000 N   0  0  0  0  0  0  0  0  0  0  0  0
    5.5321    0.1613    0.0000 N   0  0  0  0  0  0  0  0  0  0  0  0
    6.3981    1.6613    0.0000 C   0  0  3  0  0  0  0  0  0  0  0  0
    6.3234    2.6585    0.0000 C   0  0  0  0  0  0  0  0  0  0  0  0
    7.2243    1.0980    0.0000 C   0  0  0  0  0  0  0  0  0  0  0  0
    7.0564    3.3387    0.0000 C   0  0  0  0  0  0  0  0  0  0  0  0
    8.1799    1.3928    0.0000 C   0  0  0  0  0  0  0  0  0  0  0  0
    8.0452    3.1897    0.0000 C   0  0  0  0  0  0  0  0  0  0  0  0
    4.6660    1.6613    0.0000 C   0  0  0  0  0  0  0  0  0  0  0  0
    9.5424    2.3984    0.0000 C   0  0  0  0  0  0  0  0  0  0  0  0
    3.8000    1.1613    0.0000 C   0  0  0  0  0  0  0  0  0  0  0  0
    4.6660   -0.3387    0.0000 C   0  0  0  0  0  0  0  0  0  0  0  0
    3.8000    0.1613    0.0000 C   0  0  0  0  0  0  0  0  0  0  0  0
    4.6660   -1.3387    0.0000 C   0  0  0  0  0  0  0  0  0  0  0  0
    2.9061    1.6960    0.0000 C   0  0  0  0  0  0  0  0  0  0  0  0
    2.9061   -0.3734    0.0000 C   0  0  0  0  0  0  0  0  0  0  0  0
    5.5321   -1.8387    0.0000 C   0  0  0  0  0  0  0  0  0  0  0  0
    2.0000    1.1821    0.0000 C   0  0  0  0  0  0  0  0  0  0  0  0
    2.0000    0.1405    0.0000 C   0  0  0  0  0  0  0  0  0  0  0  0
    5.5321   -2.8387    0.0000 C   0  0  0  0  0  0  0  0  0  0  0  0
    6.3981   -1.3387    0.0000 C   0  0  0  0  0  0  0  0  0  0  0  0
    6.3981   -3.3387    0.0000 C   0  0  0  0  0  0  0  0  0  0  0  0
    7.2641   -1.8387    0.0000 C   0  0  0  0  0  0  0  0  0  0  0  0
    7.2641   -2.8387    0.0000 C   0  0  0  0  0  0  0  0  0  0  0  0
    6.3749    1.0418    0.0000 H   0  0  0  0  0  0  0  0  0  0  0  0
    6.0134    3.1955    0.0000 H   0  0  0  0  0  0  0  0  0  0  0  0
    5.7309    2.4758    0.0000 H   0  0  0  0  0  0  0  0  0  0  0  0
    6.7698    0.6763    0.0000 H   0  0  0  0  0  0  0  0  0  0  0  0
    7.5343    0.5611    0.0000 H   0  0  0  0  0  0  0  0  0  0  0  0
    7.2829    3.9158    0.0000 H   0  0  0  0  0  0  0  0  0  0  0  0
    6.5441    3.6880    0.0000 H   0  0  0  0  0  0  0  0  0  0  0  0
    8.2262    0.7745    0.0000 H   0  0  0  0  0  0  0  0  0  0  0  0
    8.7930    1.3003    0.0000 H   0  0  0  0  0  0  0  0  0  0  0  0
    8.6377    3.3724    0.0000 H   0  0  0  0  0  0  0  0  0  0  0  0
    7.9989    3.8079    0.0000 H   0  0  0  0  0  0  0  0  0  0  0  0
    9.5888    1.7801    0.0000 H   0  0  0  0  0  0  0  0  0  0  0  0
   10.1607    2.4447    0.0000 H   0  0  0  0  0  0  0  0  0  0  0  0
    9.4961    3.0166    0.0000 H   0  0  0  0  0  0  0  0  0  0  0  0
    4.0555   -1.2310    0.0000 H   0  0  0  0  0  0  0  0  0  0  0  0
    4.4540   -1.9213    0.0000 H   0  0  0  0  0  0  0  0  0  0  0  0
    2.9132    2.3159    0.0000 H   0  0  0  0  0  0  0  0  0  0  0  0
    2.9132   -0.9933    0.0000 H   0  0  0  0  0  0  0  0  0  0  0  0
    1.4643    1.4942    0.0000 H   0  0  0  0  0  0  0  0  0  0  0  0
    1.4643   -0.1716    0.0000 H   0  0  0  0  0  0  0  0  0  0  0  0
    4.9951   -3.1487    0.0000 H   0  0  0  0  0  0  0  0  0  0  0  0
    6.3981   -0.7187    0.0000 H   0  0  0  0  0  0  0  0  0  0  0  0
    6.3981   -3.9587    0.0000 H   0  0  0  0  0  0  0  0  0  0  0  0
    7.8011   -1.5287    0.0000 H   0  0  0  0  0  0  0  0  0  0  0  0
  1 27  1  0  0  0  0
  2 12  2  0  0  0  0
  3 10  1  0  0  0  0
  3 11  1  0  0  0  0
  3 13  1  0  0  0  0
  4  5  1  0  0  0  0
  4  6  1  0  0  0  0
  4 12  1  0  0  0  0
  5 15  2  0  0  0  0
  6  7  1  0  0  0  0
  6  8  1  0  0  0  0
  6 28  1  0  0  0  0
  7  9  1  0  0  0  0
  7 29  1  0  0  0  0
  7 30  1  0  0  0  0
  8 10  1  0  0  0  0
  8 31  1  0  0  0  0
  8 32  1  0  0  0  0
  9 11  1  0  0  0  0
  9 33  1  0  0  0  0
  9 34  1  0  0  0  0
 10 35  1  0  0  0  0
 10 36  1  0  0  0  0
 11 37  1  0  0  0  0
 11 38  1  0  0  0  0
 12 14  1  0  0  0  0
 13 39  1  0  0  0  0
 13 40  1  0  0  0  0
 13 41  1  0  0  0  0
 14 16  1  0  0  0  0
 14 18  2  0  0  0  0
 15 16  1  0  0  0  0
 15 17  1  0  0  0  0
 16 19  2  0  0  0  0
 17 20  1  0  0  0  0
 17 42  1  0  0  0  0
 17 43  1  0  0  0  0
 18 21  1  0  0  0  0
 18 44  1  0  0  0  0
 19 22  1  0  0  0  0
 19 45  1  0  0  0  0
 20 23  2  0  0  0  0
 20 24  1  0  0  0  0
 21 22  2  0  0  0  0
 21 46  1  0  0  0  0
 22 47  1  0  0  0  0
 23 25  1  0  0  0  0
 23 48  1  0  0  0  0
 24 26  2  0  0  0  0
 24 49  1  0  0  0  0
 25 27  2  0  0  0  0
 25 50  1  0  0  0  0
 26 27  1  0  0  0  0
 26 51  1  0  0  0  0
M  END
> <PUBCHEM_COMPOUND_CID>
2267

> <PUBCHEM_COMPOUND_CANONICALIZED>
1

> <PUBCHEM_CACTVS_COMPLEXITY>
558

> <PUBCHEM_CACTVS_HBOND_ACCEPTOR>
3

> <PUBCHEM_CACTVS_HBOND_DONOR>
0

> <PUBCHEM_CACTVS_ROTATABLE_BOND>
3

> <PUBCHEM_CACTVS_SUBSKEYS>
AAADceB7IAAEAAAAAAAAAAAAAAAAAAAAAAAwYIAABYAAAACBQAAAHgIIAAAADCrBmCQyAIMAAACoAyFyEACSAAAkBQAaiAE4BtgIILKB1xGEIQhgjgCIiYcYiMCOhAAAAAAQAAAIAAAAACAAAAAAAAAAAA==

> <PUBCHEM_IUPAC_OPENEYE_NAME>
4-[(4-chlorophenyl)methyl]-2-(1-methylazepan-4-yl)phthalazin-1-one

> <PUBCHEM_IUPAC_CAS_NAME>
4-[(4-chlorophenyl)methyl]-2-(1-methyl-4-azepanyl)-1-phthalazinone

> <PUBCHEM_IUPAC_NAME_MARKUP>
4-[(4-chlorophenyl)methyl]-2-(1-methylazepan-4-yl)phthalazin-1-one

> <PUBCHEM_IUPAC_NAME>
4-[(4-chlorophenyl)methyl]-2-(1-methylazepan-4-yl)phthalazin-1-one

> <PUBCHEM_IUPAC_SYSTEMATIC_NAME>
4-[(4-chlorophenyl)methyl]-2-(1-methylazepan-4-yl)phthalazin-1-one

> <PUBCHEM_IUPAC_TRADITIONAL_NAME>
4-(4-chlorobenzyl)-2-(1-methylazepan-4-yl)phthalazin-1-one

> <PUBCHEM_IUPAC_INCHI>
InChI=1S/C22H24ClN3O/c1-25-13-4-5-18(12-14-25)26-22(27)20-7-3-2-6-19(20)21(24-26)15-16-8-10-17(23)11-9-16/h2-3,6-11,18H,4-5,12-15H2,1H3

> <PUBCHEM_IUPAC_INCHIKEY>
MBUVEWMHONZEQD-UHFFFAOYSA-N

> <PUBCHEM_XLOGP3_AA>
4.4

> <PUBCHEM_EXACT_MASS>
381.1607901

> <PUBCHEM_MOLECULAR_FORMULA>
C22H24ClN3O

> <PUBCHEM_MOLECULAR_WEIGHT>
381.9

> <PUBCHEM_SMILES>
CN1CCCC(CC1)N2C(=O)C3=CC=CC=C3C(=N2)CC4=CC=C(C=C4)Cl

> <PUBCHEM_CONNECTIVITY_SMILES>
CN1CCCC(CC1)N2C(=O)C3=CC=CC=C3C(=N2)CC4=CC=C(C=C4)Cl

> <PUBCHEM_CACTVS_TPSA>
35.9

> <PUBCHEM_MONOISOTOPIC_WEIGHT>
381.1607901

> <PUBCHEM_TOTAL_CHARGE>
0

> <PUBCHEM_HEAVY_ATOM_COUNT>
27

> <PUBCHEM_ATOM_DEF_STEREO_COUNT>
0

> <PUBCHEM_ATOM_UDEF_STEREO_COUNT>
1

> <PUBCHEM_BOND_DEF_STEREO_COUNT>
0

> <PUBCHEM_BOND_UDEF_STEREO_COUNT>
0

> <PUBCHEM_ISOTOPIC_ATOM_COUNT>
0

> <PUBCHEM_COMPONENT_COUNT>
1

> <PUBCHEM_CACTVS_TAUTO_COUNT>
-1

> <PUBCHEM_COORDINATE_TYPE>
1
5
255

> <PUBCHEM_BONDANNOTATIONS>
12  14  8
14  16  8
14  18  8
15  16  8
16  19  8
18  21  8
19  22  8
20  23  8
20  24  8
21  22  8
23  25  8
24  26  8
25  27  8
26  27  8
4  12  8
4  5  8
6  4  3
5  15  8

$$$$
5281071
  -OEChem-08112611012D

 48 50  0     0  0  0  0  0  0999 V2000
    7.1620    3.0953    0.0000 O   0  0  0  0  0  0  0  0  0  0  0  0
    2.5932   -0.1572    0.0000 O   0  0  0  0  0  0  0  0  0  0  0  0
    3.0973    1.4999    0.0000 O   0  0  0  0  0  0  0  0  0  0  0  0
    5.9299   -2.0953    0.0000 N   0  0  0  0  0  0  0  0  0  0  0  0
    7.6619    0.9047    0.0000 C   0  0  0  0  0  0  0  0  0  0  0  0
    6.7610    1.3386    0.0000 C   0  0  0  0  0  0  0  0  0  0  0  0
    8.5629    1.3386    0.0000 C   0  0  0  0  0  0  0  0  0  0  0  0
    8.7854    2.3135    0.0000 C   0  0  0  0  0  0  0  0  0  0  0  0
    6.5385    2.3135    0.0000 C   0  0  0  0  0  0  0  0  0  0  0  0
    6.7959   -0.5953    0.0000 C   0  0  0  0  0  0  0  0  0  0  0  0
    7.6619   -0.0953    0.0000 C   0  0  0  0  0  0  0  0  0  0  0  0
    8.1620    3.0953    0.0000 C   0  0  0  0  0  0  0  0  0  0  0  0
    6.7959   -1.5953    0.0000 C   0  0  0  0  0  0  0  0  0  0  0  0
    6.0084    0.6184    0.0000 C   0  0  0  0  0  0  0  0  0  0  0  0
    5.0107    0.9177    0.0000 C   0  0  0  0  0  0  0  0  0  0  0  0
    9.3155    0.6184    0.0000 C   0  0  0  0  0  0  0  0  0  0  0  0
    5.5480    2.6358    0.0000 C   0  0  0  0  0  0  0  0  0  0  0  0
    9.7759    2.6358    0.0000 C   0  0  0  0  0  0  0  0  0  0  0  0
    4.7789    1.9333    0.0000 C   0  0  0  0  0  0  0  0  0  0  0  0
    4.2803    0.2348    0.0000 C   0  0  0  0  0  0  0  0  0  0  0  0
   10.3131    0.9177    0.0000 C   0  0  0  0  0  0  0  0  0  0  0  0
   10.5449    1.9332    0.0000 C   0  0  0  0  0  0  0  0  0  0  0  0
    5.9299   -3.0953    0.0000 C   0  0  0  0  0  0  0  0  0  0  0  0
    5.0638   -1.5953    0.0000 C   0  0  0  0  0  0  0  0  0  0  0  0
    3.3236    0.5258    0.0000 C   0  0  0  0  0  0  0  0  0  0  0  0
    6.5838   -0.0127    0.0000 H   0  0  0  0  0  0  0  0  0  0  0  0
    6.1853   -0.7030    0.0000 H   0  0  0  0  0  0  0  0  0  0  0  0
    8.1989   -0.4053    0.0000 H   0  0  0  0  0  0  0  0  0  0  0  0
    8.7206    3.3643    0.0000 H   0  0  0  0  0  0  0  0  0  0  0  0
    8.0240    3.6998    0.0000 H   0  0  0  0  0  0  0  0  0  0  0  0
    7.0079   -2.1779    0.0000 H   0  0  0  0  0  0  0  0  0  0  0  0
    7.4065   -1.4877    0.0000 H   0  0  0  0  0  0  0  0  0  0  0  0
    6.1533    0.0156    0.0000 H   0  0  0  0  0  0  0  0  0  0  0  0
    9.1705    0.0155    0.0000 H   0  0  0  0  0  0  0  0  0  0  0  0
    5.4170    3.2418    0.0000 H   0  0  0  0  0  0  0  0  0  0  0  0
    9.9069    3.2418    0.0000 H   0  0  0  0  0  0  0  0  0  0  0  0
    4.1872    2.1183    0.0000 H   0  0  0  0  0  0  0  0  0  0  0  0
    3.9996   -0.3181    0.0000 H   0  0  0  0  0  0  0  0  0  0  0  0
    4.7759   -0.1377    0.0000 H   0  0  0  0  0  0  0  0  0  0  0  0
   10.7660    0.4942    0.0000 H   0  0  0  0  0  0  0  0  0  0  0  0
   11.1367    2.1182    0.0000 H   0  0  0  0  0  0  0  0  0  0  0  0
    5.3099   -3.0953    0.0000 H   0  0  0  0  0  0  0  0  0  0  0  0
    5.9298   -3.7153    0.0000 H   0  0  0  0  0  0  0  0  0  0  0  0
    6.5499   -3.0953    0.0000 H   0  0  0  0  0  0  0  0  0  0  0  0
    5.3738   -1.0584    0.0000 H   0  0  0  0  0  0  0  0  0  0  0  0
    4.5269   -1.2853    0.0000 H   0  0  0  0  0  0  0  0  0  0  0  0
    4.7538   -2.1322    0.0000 H   0  0  0  0  0  0  0  0  0  0  0  0
    2.0000    0.0233    0.0000 H   0  0  0  0  0  0  0  0  0  0  0  0
  1  9  1  0  0  0  0
  1 12  1  0  0  0  0
  2 25  1  0  0  0  0
  2 48  1  0  0  0  0
  3 25  2  0  0  0  0
  4 13  1  0  0  0  0
  4 23  1  0  0  0  0
  4 24  1  0  0  0  0
  5  6  1  0  0  0  0
  5  7  1  0  0  0  0
  5 11  2  0  0  0  0
  6  9  2  0  0  0  0
  6 14  1  0  0  0  0
  7  8  1  0  0  0  0
  7 16  2  0  0  0  0
  8 12  1  0  0  0  0
  8 18  2  0  0  0  0
  9 17  1  0  0  0  0
 10 11  1  0  0  0  0
 10 13  1  0  0  0  0
 10 26  1  0  0  0  0
 10 27  1  0  0  0  0
 11 28  1  0  0  0  0
 12 29  1  0  0  0  0
 12 30  1  0  0  0  0
 13 31  1  0  0  0  0
 13 32  1  0  0  0  0
 14 15  2  0  0  0  0
 14 33  1  0  0  0  0
 15 19  1  0  0  0  0
 15 20  1  0  0  0  0
 16 21  1  0  0  0  0
 16 34  1  0  0  0  0
 17 19  2  0  0  0  0
 17 35  1  0  0  0  0
 18 22  1  0  0  0  0
 18 36  1  0  0  0  0
 19 37  1  0  0  0  0
 20 25  1  0  0  0  0
 20 38  1  0  0  0  0
 20 39  1  0  0  0  0
 21 22  2  0  0  0  0
 21 40  1  0  0  0  0
 22 41  1  0  0  0  0
 23 42  1  0  0  0  0
 23 43  1  0  0  0  0
 23 44  1  0  0  0  0
 24 45  1  0  0  0  0
 24 46  1  0  0  0  0
 24 47  1  0  0  0  0
M  END
> <PUBCHEM_COMPOUND_CID>
5281071

> <PUBCHEM_COMPOUND_CANONICALIZED>
1

> <PUBCHEM_CACTVS_COMPLEXITY>
488

> <PUBCHEM_CACTVS_HBOND_ACCEPTOR>
4

> <PUBCHEM_CACTVS_HBOND_DONOR>
1

> <PUBCHEM_CACTVS_ROTATABLE_BOND>
5

> <PUBCHEM_CACTVS_SUBSKEYS>
AAADceB6MAAAAAAAAAAAAAAAAAAAAAAAAAAwYAAABIAAAAABQAAAHgAACAAADAThmAYyDoMABgCIAiDSCAACCAAgIAAIiAEOCIgMJjKENRqGeCCkwBEIqAeIyPCOoAACAAAYAABAAAQAADAAAAAAAAAAAA==

> <PUBCHEM_IUPAC_OPENEYE_NAME>
2-[(11Z)-11-[3-(dimethylamino)propylidene]-6H-benzo[c][1]benzoxepin-2-yl]acetic acid

> <PUBCHEM_IUPAC_CAS_NAME>
2-[(11Z)-11-[3-(dimethylamino)propylidene]-6H-benzo[c][1]benzoxepin-2-yl]acetic acid

> <PUBCHEM_IUPAC_NAME_MARKUP>
2-[(11<I>Z</I>)-11-[3-(dimethylamino)propylidene]-6<I>H</I>-benzo[c][1]benzoxepin-2-yl]acetic acid

> <PUBCHEM_IUPAC_NAME>
2-[(11Z)-11-[3-(dimethylamino)propylidene]-6H-benzo[c][1]benzoxepin-2-yl]acetic acid

> <PUBCHEM_IUPAC_SYSTEMATIC_NAME>
2-[(11Z)-11-[3-(dimethylamino)propylidene]-6H-benzo[c][1]benzoxepin-2-yl]ethanoic acid

> <PUBCHEM_IUPAC_TRADITIONAL_NAME>
2-[(11Z)-11-[3-(dimethylamino)propylidene]-6H-benzo[c][1]benzoxepin-2-yl]acetic acid

> <PUBCHEM_IUPAC_INCHI>
InChI=1S/C21H23NO3/c1-22(2)11-5-8-18-17-7-4-3-6-16(17)14-25-20-10-9-15(12-19(18)20)13-21(23)24/h3-4,6-10,12H,5,11,13-14H2,1-2H3,(H,23,24)/b18-8-

> <PUBCHEM_IUPAC_INCHIKEY>
JBIMVDZLSHOPLA-LSCVHKIXSA-N

> <PUBCHEM_XLOGP3>
1.5

> <PUBCHEM_EXACT_MASS>
337.16779360

> <PUBCHEM_MOLECULAR_FORMULA>
C21H23NO3

> <PUBCHEM_MOLECULAR_WEIGHT>
337.4

> <PUBCHEM_SMILES>
CN(C)CC/C=C\1/C2=CC=CC=C2COC3=C1C=C(C=C3)CC(=O)O

> <PUBCHEM_CONNECTIVITY_SMILES>
CN(C)CCC=C1C2=CC=CC=C2COC3=C1C=C(C=C3)CC(=O)O

> <PUBCHEM_CACTVS_TPSA>
49.8

> <PUBCHEM_MONOISOTOPIC_WEIGHT>
337.16779360

> <PUBCHEM_TOTAL_CHARGE>
0

> <PUBCHEM_HEAVY_ATOM_COUNT>
25

> <PUBCHEM_ATOM_DEF_STEREO_COUNT>
0

> <PUBCHEM_ATOM_UDEF_STEREO_COUNT>
0

> <PUBCHEM_BOND_DEF_STEREO_COUNT>
1

> <PUBCHEM_BOND_UDEF_STEREO_COUNT>
0

> <PUBCHEM_ISOTOPIC_ATOM_COUNT>
0

> <PUBCHEM_COMPONENT_COUNT>
1

> <PUBCHEM_CACTVS_TAUTO_COUNT>
-1

> <PUBCHEM_COORDINATE_TYPE>
1
5
255

> <PUBCHEM_BONDANNOTATIONS>
14  15  8
15  19  8
16  21  8
17  19  8
18  22  8
21  22  8
6  14  8
6  9  8
7  16  8
7  8  8
8  18  8
9  17  8

$$$$
6726
  -OEChem-08112611012D

 42 44  0     0  0  0  0  0  0999 V2000
    4.5981    0.0000    0.0000 N   0  0  0  0  0  0  0  0  0  0  0  0
    4.5981    2.0000    0.0000 N   0  0  0  0  0  0  0  0  0  0  0  0
    3.7321    0.5000    0.0000 C   0  0  0  0  0  0  0  0  0  0  0  0
    5.4641    0.5000    0.0000 C   0  0  0  0  0  0  0  0  0  0  0  0
    4.5981   -1.0000    0.0000 C   0  0  0  0  0  0  0  0  0  0  0  0
    3.7321    1.5000    0.0000 C   0  0  0  0  0  0  0  0  0  0  0  0
    5.4641    1.5000    0.0000 C   0  0  0  0  0  0  0  0  0  0  0  0
    3.7321   -1.5000    0.0000 C   0  0  0  0  0  0  0  0  0  0  0  0
    5.4641   -1.5000    0.0000 C   0  0  0  0  0  0  0  0  0  0  0  0
    4.5981    3.0000    0.0000 C   0  0  0  0  0  0  0  0  0  0  0  0
    2.8660   -1.0000    0.0000 C   0  0  0  0  0  0  0  0  0  0  0  0
    5.4641   -2.5000    0.0000 C   0  0  0  0  0  0  0  0  0  0  0  0
    3.7321   -2.5000    0.0000 C   0  0  0  0  0  0  0  0  0  0  0  0
    6.3301   -1.0000    0.0000 C   0  0  0  0  0  0  0  0  0  0  0  0
    2.0000   -1.5000    0.0000 C   0  0  0  0  0  0  0  0  0  0  0  0
    6.3301   -3.0000    0.0000 C   0  0  0  0  0  0  0  0  0  0  0  0
    2.8660   -3.0000    0.0000 C   0  0  0  0  0  0  0  0  0  0  0  0
    7.1962   -1.5000    0.0000 C   0  0  0  0  0  0  0  0  0  0  0  0
    2.0000   -2.5000    0.0000 C   0  0  0  0  0  0  0  0  0  0  0  0
    7.1962   -2.5000    0.0000 C   0  0  0  0  0  0  0  0  0  0  0  0
    3.1215    0.6077    0.0000 H   0  0  0  0  0  0  0  0  0  0  0  0
    3.5200   -0.0826    0.0000 H   0  0  0  0  0  0  0  0  0  0  0  0
    5.6762   -0.0826    0.0000 H   0  0  0  0  0  0  0  0  0  0  0  0
    6.0747    0.6077    0.0000 H   0  0  0  0  0  0  0  0  0  0  0  0
    4.5981   -1.6200    0.0000 H   0  0  0  0  0  0  0  0  0  0  0  0
    3.5200    2.0826    0.0000 H   0  0  0  0  0  0  0  0  0  0  0  0
    3.1215    1.3923    0.0000 H   0  0  0  0  0  0  0  0  0  0  0  0
    6.0747    1.3923    0.0000 H   0  0  0  0  0  0  0  0  0  0  0  0
    5.6762    2.0826    0.0000 H   0  0  0  0  0  0  0  0  0  0  0  0
    5.2181    3.0000    0.0000 H   0  0  0  0  0  0  0  0  0  0  0  0
    4.5981    3.6200    0.0000 H   0  0  0  0  0  0  0  0  0  0  0  0
    3.9781    3.0000    0.0000 H   0  0  0  0  0  0  0  0  0  0  0  0
    2.8660   -0.3800    0.0000 H   0  0  0  0  0  0  0  0  0  0  0  0
    4.9272   -2.8100    0.0000 H   0  0  0  0  0  0  0  0  0  0  0  0
    4.2690   -2.8100    0.0000 H   0  0  0  0  0  0  0  0  0  0  0  0
    6.3301   -0.3800    0.0000 H   0  0  0  0  0  0  0  0  0  0  0  0
    1.4631   -1.1900    0.0000 H   0  0  0  0  0  0  0  0  0  0  0  0
    6.3301   -3.6200    0.0000 H   0  0  0  0  0  0  0  0  0  0  0  0
    2.8660   -3.6200    0.0000 H   0  0  0  0  0  0  0  0  0  0  0  0
    7.7331   -1.1900    0.0000 H   0  0  0  0  0  0  0  0  0  0  0  0
    1.4631   -2.8100    0.0000 H   0  0  0  0  0  0  0  0  0  0  0  0
    7.7331   -2.8100    0.0000 H   0  0  0  0  0  0  0  0  0  0  0  0
  1  3  1  0  0  0  0
  1  4  1  0  0  0  0
  1  5  1  0  0  0  0
  2  6  1  0  0  0  0
  2  7  1  0  0  0  0
  2 10  1  0  0  0  0
  3  6  1  0  0  0  0
  3 21  1  0  0  0  0
  3 22  1  0  0  0  0
  4  7  1  0  0  0  0
  4 23  1  0  0  0  0
  4 24  1  0  0  0  0
  5  8  1  0  0  0  0
  5  9  1  0  0  0  0
  5 25  1  0  0  0  0
  6 26  1  0  0  0  0
  6 27  1  0  0  0  0
  7 28  1  0  0  0  0
  7 29  1  0  0  0  0
  8 11  2  0  0  0  0
  8 13  1  0  0  0  0
  9 12  2  0  0  0  0
  9 14  1  0  0  0  0
 10 30  1  0  0  0  0
 10 31  1  0  0  0  0
 10 32  1  0  0  0  0
 11 15  1  0  0  0  0
 11 33  1  0  0  0  0
 12 16  1  0  0  0  0
 12 34  1  0  0  0  0
 13 17  2  0  0  0  0
 13 35  1  0  0  0  0
 14 18  2  0  0  0  0
 14 36  1  0  0  0  0
 15 19  2  0  0  0  0
 15 37  1  0  0  0  0
 16 20  2  0  0  0  0
 16 38  1  0  0  0  0
 17 19  1  0  0  0  0
 17 39  1  0  0  0  0
 18 20  1  0  0  0  0
 18 40  1  0  0  0  0
 19 41  1  0  0  0  0
 20 42  1  0  0  0  0
M  END
> <PUBCHEM_COMPOUND_CID>
6726

> <PUBCHEM_COMPOUND_CANONICALIZED>
1

> <PUBCHEM_CACTVS_COMPLEXITY>
253

> <PUBCHEM_CACTVS_HBOND_ACCEPTOR>
2

> <PUBCHEM_CACTVS_HBOND_DONOR>
0

> <PUBCHEM_CACTVS_ROTATABLE_BOND>
3

> <PUBCHEM_CACTVS_SUBSKEYS>
AAADceB7AAAAAAAAAAAAAAAAAAAAAAAAAAA8YIAAAAAAAAABQAAAHAAAAAAADCjBGAQyAIMAAACAAiBCAACCAAAgAAAIiAAIBIgIYCKAkRGUIAhggACIiAcQgMAOAAAAAAAAAAAAAAAAAAAAAAAAAAAAAA==

> <PUBCHEM_IUPAC_OPENEYE_NAME>
1-benzhydryl-4-methyl-piperazine

> <PUBCHEM_IUPAC_CAS_NAME>
1-(diphenylmethyl)-4-methylpiperazine

> <PUBCHEM_IUPAC_NAME_MARKUP>
1-benzhydryl-4-methylpiperazine

> <PUBCHEM_IUPAC_NAME>
1-benzhydryl-4-methylpiperazine

> <PUBCHEM_IUPAC_SYSTEMATIC_NAME>
1-(diphenylmethyl)-4-methyl-piperazine

> <PUBCHEM_IUPAC_TRADITIONAL_NAME>
1-benzhydryl-4-methyl-piperazine

> <PUBCHEM_IUPAC_INCHI>
InChI=1S/C18H22N2/c1-19-12-14-20(15-13-19)18(16-8-4-2-5-9-16)17-10-6-3-7-11-17/h2-11,18H,12-15H2,1H3

> <PUBCHEM_IUPAC_INCHIKEY>
UVKZSORBKUEBAZ-UHFFFAOYSA-N

> <PUBCHEM_XLOGP3>
3.6

> <PUBCHEM_EXACT_MASS>
266.178298710

> <PUBCHEM_MOLECULAR_FORMULA>
C18H22N2

> <PUBCHEM_MOLECULAR_WEIGHT>
266.4

> <PUBCHEM_SMILES>
CN1CCN(CC1)C(C2=CC=CC=C2)C3=CC=CC=C3

> <PUBCHEM_CONNECTIVITY_SMILES>
CN1CCN(CC1)C(C2=CC=CC=C2)C3=CC=CC=C3

> <PUBCHEM_CACTVS_TPSA>
6.5

> <PUBCHEM_MONOISOTOPIC_WEIGHT>
266.178298710

> <PUBCHEM_TOTAL_CHARGE>
0

> <PUBCHEM_HEAVY_ATOM_COUNT>
20

> <PUBCHEM_ATOM_DEF_STEREO_COUNT>
0

> <PUBCHEM_ATOM_UDEF_STEREO_COUNT>
0

> <PUBCHEM_BOND_DEF_STEREO_COUNT>
0

> <PUBCHEM_BOND_UDEF_STEREO_COUNT>
0

> <PUBCHEM_ISOTOPIC_ATOM_COUNT>
0

> <PUBCHEM_COMPONENT_COUNT>
1

> <PUBCHEM_CACTVS_TAUTO_COUNT>
-1

> <PUBCHEM_COORDINATE_TYPE>
1
5
255

> <PUBCHEM_BONDANNOTATIONS>
11  15  8
12  16  8
13  17  8
14  18  8
15  19  8
16  20  8
17  19  8
18  20  8
8  11  8
8  13  8
9  12  8
9  14  8

$$$$
26987
  -OEChem-08112611012D

 50 52  0     1  0  0  0  0  0999 V2000
    3.0000   -3.6574    0.0000 Cl  0  0  0  0  0  0  0  0  0  0  0  0
    4.0000    0.3426    0.0000 O   0  0  0  0  0  0  0  0  0  0  0  0
    6.9945    2.1792    0.0000 N   0  0  3  0  0  0  0  0  0  0  0  0
    6.0000    2.0747    0.0000 C   0  0  2  0  0  0  0  0  0  0  0  0
    5.5933    2.9882    0.0000 C   0  0  0  0  0  0  0  0  0  0  0  0
    6.3364    3.6574    0.0000 C   0  0  0  0  0  0  0  0  0  0  0  0
    7.2024    3.1574    0.0000 C   0  0  0  0  0  0  0  0  0  0  0  0
    5.5000    1.2087    0.0000 C   0  0  0  0  0  0  0  0  0  0  0  0
    4.5000    1.2087    0.0000 C   0  0  0  0  0  0  0  0  0  0  0  0
    7.6637    1.4361    0.0000 C   0  0  0  0  0  0  0  0  0  0  0  0
    3.0000    0.3426    0.0000 C   0  0  1  0  0  0  0  0  0  0  0  0
    3.0000   -0.6574    0.0000 C   0  0  0  0  0  0  0  0  0  0  0  0
    3.0000    1.3426    0.0000 C   0  0  0  0  0  0  0  0  0  0  0  0
    2.0000    0.3426    0.0000 C   0  0  0  0  0  0  0  0  0  0  0  0
    2.1340   -1.1574    0.0000 C   0  0  0  0  0  0  0  0  0  0  0  0
    3.8660   -1.1574    0.0000 C   0  0  0  0  0  0  0  0  0  0  0  0
    3.8660    1.8426    0.0000 C   0  0  0  0  0  0  0  0  0  0  0  0
    2.1340    1.8426    0.0000 C   0  0  0  0  0  0  0  0  0  0  0  0
    2.1340   -2.1574    0.0000 C   0  0  0  0  0  0  0  0  0  0  0  0
    3.8660   -2.1574    0.0000 C   0  0  0  0  0  0  0  0  0  0  0  0
    3.8660    2.8426    0.0000 C   0  0  0  0  0  0  0  0  0  0  0  0
    2.1340    2.8426    0.0000 C   0  0  0  0  0  0  0  0  0  0  0  0
    3.0000   -2.6574    0.0000 C   0  0  0  0  0  0  0  0  0  0  0  0
    3.0000    3.3426    0.0000 C   0  0  0  0  0  0  0  0  0  0  0  0
    6.3377    1.5547    0.0000 H   0  0  0  0  0  0  0  0  0  0  0  0
    5.2288    3.4898    0.0000 H   0  0  0  0  0  0  0  0  0  0  0  0
    5.0563    2.6782    0.0000 H   0  0  0  0  0  0  0  0  0  0  0  0
    6.7008    4.1590    0.0000 H   0  0  0  0  0  0  0  0  0  0  0  0
    5.8757    4.0722    0.0000 H   0  0  0  0  0  0  0  0  0  0  0  0
    7.7921    2.9658    0.0000 H   0  0  0  0  0  0  0  0  0  0  0  0
    7.4546    3.7238    0.0000 H   0  0  0  0  0  0  0  0  0  0  0  0
    5.3923    0.5981    0.0000 H   0  0  0  0  0  0  0  0  0  0  0  0
    6.0826    0.9966    0.0000 H   0  0  0  0  0  0  0  0  0  0  0  0
    4.6077    1.8192    0.0000 H   0  0  0  0  0  0  0  0  0  0  0  0
    3.9174    1.4207    0.0000 H   0  0  0  0  0  0  0  0  0  0  0  0
    7.2029    1.0212    0.0000 H   0  0  0  0  0  0  0  0  0  0  0  0
    8.0785    0.9753    0.0000 H   0  0  0  0  0  0  0  0  0  0  0  0
    8.1244    1.8509    0.0000 H   0  0  0  0  0  0  0  0  0  0  0  0
    2.0000    0.9626    0.0000 H   0  0  0  0  0  0  0  0  0  0  0  0
    1.3800    0.3426    0.0000 H   0  0  0  0  0  0  0  0  0  0  0  0
    2.0000   -0.2774    0.0000 H   0  0  0  0  0  0  0  0  0  0  0  0
    1.5970   -0.8474    0.0000 H   0  0  0  0  0  0  0  0  0  0  0  0
    4.4030   -0.8474    0.0000 H   0  0  0  0  0  0  0  0  0  0  0  0
    4.4030    1.5326    0.0000 H   0  0  0  0  0  0  0  0  0  0  0  0
    1.5970    1.5326    0.0000 H   0  0  0  0  0  0  0  0  0  0  0  0
    1.5970   -2.4674    0.0000 H   0  0  0  0  0  0  0  0  0  0  0  0
    4.4030   -2.4674    0.0000 H   0  0  0  0  0  0  0  0  0  0  0  0
    4.4030    3.1526    0.0000 H   0  0  0  0  0  0  0  0  0  0  0  0
    1.5970    3.1526    0.0000 H   0  0  0  0  0  0  0  0  0  0  0  0
    3.0000    3.9626    0.0000 H   0  0  0  0  0  0  0  0  0  0  0  0
  1 23  1  0  0  0  0
  2  9  1  0  0  0  0
 11  2  1  6  0  0  0
  3  4  1  0  0  0  0
  3  7  1  0  0  0  0
  3 10  1  0  0  0  0
  4  5  1  0  0  0  0
  4  8  1  1  0  0  0
  4 25  1  0  0  0  0
  5  6  1  0  0  0  0
  5 26  1  0  0  0  0
  5 27  1  0  0  0  0
  6  7  1  0  0  0  0
  6 28  1  0  0  0  0
  6 29  1  0  0  0  0
  7 30  1  0  0  0  0
  7 31  1  0  0  0  0
  8  9  1  0  0  0  0
  8 32  1  0  0  0  0
  8 33  1  0  0  0  0
  9 34  1  0  0  0  0
  9 35  1  0  0  0  0
 10 36  1  0  0  0  0
 10 37  1  0  0  0  0
 10 38  1  0  0  0  0
 11 12  1  0  0  0  0
 11 13  1  0  0  0  0
 11 14  1  0  0  0  0
 12 15  2  0  0  0  0
 12 16  1  0  0  0  0
 13 17  2  0  0  0  0
 13 18  1  0  0  0  0
 14 39  1  0  0  0  0
 14 40  1  0  0  0  0
 14 41  1  0  0  0  0
 15 19  1  0  0  0  0
 15 42  1  0  0  0  0
 16 20  2  0  0  0  0
 16 43  1  0  0  0  0
 17 21  1  0  0  0  0
 17 44  1  0  0  0  0
 18 22  2  0  0  0  0
 18 45  1  0  0  0  0
 19 23  2  0  0  0  0
 19 46  1  0  0  0  0
 20 23  1  0  0  0  0
 20 47  1  0  0  0  0
 21 24  2  0  0  0  0
 21 48  1  0  0  0  0
 22 24  1  0  0  0  0
 22 49  1  0  0  0  0
 24 50  1  0  0  0  0
M  END
> <PUBCHEM_COMPOUND_CID>
26987

> <PUBCHEM_COMPOUND_CANONICALIZED>
1

> <PUBCHEM_CACTVS_COMPLEXITY>
376

> <PUBCHEM_CACTVS_HBOND_ACCEPTOR>
2

> <PUBCHEM_CACTVS_HBOND_DONOR>
0

> <PUBCHEM_CACTVS_ROTATABLE_BOND>
6

> <PUBCHEM_CACTVS_SUBSKEYS>
AAADceB6IAAEAAAAAAAAAAAAAAAAAWAAAAAwYAAAAAAAAAABQAAAHgIAAAAADG7hmCYyAIMABACAAiBCAAACAAAgBQAIiAAICogIJiKBsxiGMAAmwAGIqAeQwOAOhAAAAAAAAAAIAAAAAAAAAAAAAAAAAA==

> <PUBCHEM_IUPAC_OPENEYE_NAME>
(2R)-2-[2-[(1R)-1-(4-chlorophenyl)-1-phenyl-ethoxy]ethyl]-1-methyl-pyrrolidine

> <PUBCHEM_IUPAC_CAS_NAME>
(2R)-2-[2-[(1R)-1-(4-chlorophenyl)-1-phenylethoxy]ethyl]-1-methylpyrrolidine

> <PUBCHEM_IUPAC_NAME_MARKUP>
(2<I>R</I>)-2-[2-[(1<I>R</I>)-1-(4-chlorophenyl)-1-phenylethoxy]ethyl]-1-methylpyrrolidine

> <PUBCHEM_IUPAC_NAME>
(2R)-2-[2-[(1R)-1-(4-chlorophenyl)-1-phenylethoxy]ethyl]-1-methylpyrrolidine

> <PUBCHEM_IUPAC_SYSTEMATIC_NAME>
(2R)-2-[2-[(1R)-1-(4-chlorophenyl)-1-phenyl-ethoxy]ethyl]-1-methyl-pyrrolidine

> <PUBCHEM_IUPAC_TRADITIONAL_NAME>
(2R)-2-[2-[(1R)-1-(4-chlorophenyl)-1-phenyl-ethoxy]ethyl]-1-methyl-pyrrolidine

> <PUBCHEM_IUPAC_INCHI>
InChI=1S/C21H26ClNO/c1-21(17-7-4-3-5-8-17,18-10-12-19(22)13-11-18)24-16-14-20-9-6-15-23(20)2/h3-5,7-8,10-13,20H,6,9,14-16H2,1-2H3/t20-,21-/m1/s1

> <PUBCHEM_IUPAC_INCHIKEY>
YNNUSGIPVFPVBX-NHCUHLMSSA-N

> <PUBCHEM_XLOGP3_AA>
5

> <PUBCHEM_EXACT_MASS>
343.1702921

> <PUBCHEM_MOLECULAR_FORMULA>
C21H26ClNO

> <PUBCHEM_MOLECULAR_WEIGHT>
343.9

> <PUBCHEM_SMILES>
C[C@@](C1=CC=CC=C1)(C2=CC=C(C=C2)Cl)OCC[C@H]3CCCN3C

> <PUBCHEM_CONNECTIVITY_SMILES>
CC(C1=CC=CC=C1)(C2=CC=C(C=C2)Cl)OCCC3CCCN3C

> <PUBCHEM_CACTVS_TPSA>
12.5

> <PUBCHEM_MONOISOTOPIC_WEIGHT>
343.1702921

> <PUBCHEM_TOTAL_CHARGE>
0

> <PUBCHEM_HEAVY_ATOM_COUNT>
24

> <PUBCHEM_ATOM_DEF_STEREO_COUNT>
2

> <PUBCHEM_ATOM_UDEF_STEREO_COUNT>
0

> <PUBCHEM_BOND_DEF_STEREO_COUNT>
0

> <PUBCHEM_BOND_UDEF_STEREO_COUNT>
0

> <PUBCHEM_ISOTOPIC_ATOM_COUNT>
0

> <PUBCHEM_COMPONENT_COUNT>
1

> <PUBCHEM_CACTVS_TAUTO_COUNT>
-1

> <PUBCHEM_COORDINATE_TYPE>
1
5
255

> <PUBCHEM_BONDANNOTATIONS>
12  15  8
12  16  8
13  17  8
13  18  8
15  19  8
16  20  8
17  21  8
18  22  8
19  23  8
11  2  6
20  23  8
21  24  8
22  24  8
4  8  5

$$$$
5405
  -OEChem-08112611012D

 76 79  0     1  0  0  0  0  0999 V2000
    4.1350    4.0000    0.0000 O   0  0  0  0  0  0  0  0  0  0  0  0
    2.5369   -1.5000    0.0000 O   0  0  0  0  0  0  0  0  0  0  0  0
    5.1350    1.0000    0.0000 N   0  0  0  0  0  0  0  0  0  0  0  0
    5.1350    3.0000    0.0000 C   0  0  0  0  0  0  0  0  0  0  0  0
    6.0010    2.5000    0.0000 C   0  0  0  0  0  0  0  0  0  0  0  0
    4.2690    2.5000    0.0000 C   0  0  0  0  0  0  0  0  0  0  0  0
    5.1350    4.0000    0.0000 C   0  0  0  0  0  0  0  0  0  0  0  0
    6.0010    1.5000    0.0000 C   0  0  0  0  0  0  0  0  0  0  0  0
    4.2690    1.5000    0.0000 C   0  0  0  0  0  0  0  0  0  0  0  0
    5.1350   -0.0000    0.0000 C   0  0  0  0  0  0  0  0  0  0  0  0
    5.1350    5.0000    0.0000 C   0  0  0  0  0  0  0  0  0  0  0  0
    6.1350    4.0000    0.0000 C   0  0  0  0  0  0  0  0  0  0  0  0
    4.2690   -0.5000    0.0000 C   0  0  0  0  0  0  0  0  0  0  0  0
    4.2690   -1.5000    0.0000 C   0  0  0  0  0  0  0  0  0  0  0  0
    4.2690    5.5000    0.0000 C   0  0  0  0  0  0  0  0  0  0  0  0
    6.6350    3.1340    0.0000 C   0  0  0  0  0  0  0  0  0  0  0  0
    6.0010    5.5000    0.0000 C   0  0  0  0  0  0  0  0  0  0  0  0
    6.6350    4.8660    0.0000 C   0  0  0  0  0  0  0  0  0  0  0  0
    3.4030   -2.0000    0.0000 C   0  0  3  0  0  0  0  0  0  0  0  0
    4.2690    6.5000    0.0000 C   0  0  0  0  0  0  0  0  0  0  0  0
    7.6350    3.1340    0.0000 C   0  0  0  0  0  0  0  0  0  0  0  0
    6.0010    6.5000    0.0000 C   0  0  0  0  0  0  0  0  0  0  0  0
    7.6350    4.8660    0.0000 C   0  0  0  0  0  0  0  0  0  0  0  0
    3.4030   -3.0000    0.0000 C   0  0  0  0  0  0  0  0  0  0  0  0
    5.1350    7.0000    0.0000 C   0  0  0  0  0  0  0  0  0  0  0  0
    8.1350    4.0000    0.0000 C   0  0  0  0  0  0  0  0  0  0  0  0
    3.4030   -6.0000    0.0000 C   0  0  0  0  0  0  0  0  0  0  0  0
    3.4030   -5.0000    0.0000 C   0  0  0  0  0  0  0  0  0  0  0  0
    2.5369   -3.5000    0.0000 C   0  0  0  0  0  0  0  0  0  0  0  0
    4.2690   -3.5000    0.0000 C   0  0  0  0  0  0  0  0  0  0  0  0
    2.5369   -4.5000    0.0000 C   0  0  0  0  0  0  0  0  0  0  0  0
    4.2690   -4.5000    0.0000 C   0  0  0  0  0  0  0  0  0  0  0  0
    3.4030   -7.0000    0.0000 C   0  0  0  0  0  0  0  0  0  0  0  0
    2.4030   -6.0000    0.0000 C   0  0  0  0  0  0  0  0  0  0  0  0
    4.4030   -6.0000    0.0000 C   0  0  0  0  0  0  0  0  0  0  0  0
    5.6720    3.3100    0.0000 H   0  0  0  0  0  0  0  0  0  0  0  0
    6.6116    2.3923    0.0000 H   0  0  0  0  0  0  0  0  0  0  0  0
    6.2131    3.0826    0.0000 H   0  0  0  0  0  0  0  0  0  0  0  0
    4.0569    3.0826    0.0000 H   0  0  0  0  0  0  0  0  0  0  0  0
    3.6584    2.3923    0.0000 H   0  0  0  0  0  0  0  0  0  0  0  0
    6.2131    0.9174    0.0000 H   0  0  0  0  0  0  0  0  0  0  0  0
    6.6116    1.6077    0.0000 H   0  0  0  0  0  0  0  0  0  0  0  0
    3.6584    1.6077    0.0000 H   0  0  0  0  0  0  0  0  0  0  0  0
    4.0569    0.9174    0.0000 H   0  0  0  0  0  0  0  0  0  0  0  0
    5.3471   -0.5826    0.0000 H   0  0  0  0  0  0  0  0  0  0  0  0
    5.7456    0.1077    0.0000 H   0  0  0  0  0  0  0  0  0  0  0  0
    4.0569    0.0826    0.0000 H   0  0  0  0  0  0  0  0  0  0  0  0
    3.6584   -0.6077    0.0000 H   0  0  0  0  0  0  0  0  0  0  0  0
    3.8250    4.5369    0.0000 H   0  0  0  0  0  0  0  0  0  0  0  0
    4.4810   -2.0826    0.0000 H   0  0  0  0  0  0  0  0  0  0  0  0
    4.8796   -1.3923    0.0000 H   0  0  0  0  0  0  0  0  0  0  0  0
    3.7321    5.1900    0.0000 H   0  0  0  0  0  0  0  0  0  0  0  0
    6.3250    2.5970    0.0000 H   0  0  0  0  0  0  0  0  0  0  0  0
    6.5380    5.1900    0.0000 H   0  0  0  0  0  0  0  0  0  0  0  0
    6.3250    5.4030    0.0000 H   0  0  0  0  0  0  0  0  0  0  0  0
    3.4030   -1.3800    0.0000 H   0  0  0  0  0  0  0  0  0  0  0  0
    3.7321    6.8100    0.0000 H   0  0  0  0  0  0  0  0  0  0  0  0
    7.9450    2.5970    0.0000 H   0  0  0  0  0  0  0  0  0  0  0  0
    6.5380    6.8100    0.0000 H   0  0  0  0  0  0  0  0  0  0  0  0
    7.9450    5.4030    0.0000 H   0  0  0  0  0  0  0  0  0  0  0  0
    5.1350    7.6200    0.0000 H   0  0  0  0  0  0  0  0  0  0  0  0
    8.7550    4.0000    0.0000 H   0  0  0  0  0  0  0  0  0  0  0  0
    2.0000   -3.1900    0.0000 H   0  0  0  0  0  0  0  0  0  0  0  0
    4.8059   -3.1900    0.0000 H   0  0  0  0  0  0  0  0  0  0  0  0
    2.0000   -1.8100    0.0000 H   0  0  0  0  0  0  0  0  0  0  0  0
    2.0000   -4.8100    0.0000 H   0  0  0  0  0  0  0  0  0  0  0  0
    4.8059   -4.8100    0.0000 H   0  0  0  0  0  0  0  0  0  0  0  0
    2.7830   -7.0000    0.0000 H   0  0  0  0  0  0  0  0  0  0  0  0
    3.4030   -7.6200    0.0000 H   0  0  0  0  0  0  0  0  0  0  0  0
    4.0230   -7.0000    0.0000 H   0  0  0  0  0  0  0  0  0  0  0  0
    2.4030   -5.3800    0.0000 H   0  0  0  0  0  0  0  0  0  0  0  0
    1.7830   -6.0000    0.0000 H   0  0  0  0  0  0  0  0  0  0  0  0
    2.4030   -6.6200    0.0000 H   0  0  0  0  0  0  0  0  0  0  0  0
    4.4030   -6.6200    0.0000 H   0  0  0  0  0  0  0  0  0  0  0  0
    5.0230   -6.0000    0.0000 H   0  0  0  0  0  0  0  0  0  0  0  0
    4.4030   -5.3800    0.0000 H   0  0  0  0  0  0  0  0  0  0  0  0
  1  7  1  0  0  0  0
  1 49  1  0  0  0  0
  2 19  1  0  0  0  0
  2 65  1  0  0  0  0
  3  8  1  0  0  0  0
  3  9  1  0  0  0  0
  3 10  1  0  0  0  0
  4  5  1  0  0  0  0
  4  6  1  0  0  0  0
  4  7  1  0  0  0  0
  4 36  1  0  0  0  0
  5  8  1  0  0  0  0
  5 37  1  0  0  0  0
  5 38  1  0  0  0  0
  6  9  1  0  0  0  0
  6 39  1  0  0  0  0
  6 40  1  0  0  0  0
  7 11  1  0  0  0  0
  7 12  1  0  0  0  0
  8 41  1  0  0  0  0
  8 42  1  0  0  0  0
  9 43  1  0  0  0  0
  9 44  1  0  0  0  0
 10 13  1  0  0  0  0
 10 45  1  0  0  0  0
 10 46  1  0  0  0  0
 11 15  2  0  0  0  0
 11 17  1  0  0  0  0
 12 16  2  0  0  0  0
 12 18  1  0  0  0  0
 13 14  1  0  0  0  0
 13 47  1  0  0  0  0
 13 48  1  0  0  0  0
 14 19  1  0  0  0  0
 14 50  1  0  0  0  0
 14 51  1  0  0  0  0
 15 20  1  0  0  0  0
 15 52  1  0  0  0  0
 16 21  1  0  0  0  0
 16 53  1  0  0  0  0
 17 22  2  0  0  0  0
 17 54  1  0  0  0  0
 18 23  2  0  0  0  0
 18 55  1  0  0  0  0
 19 24  1  0  0  0  0
 19 56  1  0  0  0  0
 20 25  2  0  0  0  0
 20 57  1  0  0  0  0
 21 26  2  0  0  0  0
 21 58  1  0  0  0  0
 22 25  1  0  0  0  0
 22 59  1  0  0  0  0
 23 26  1  0  0  0  0
 23 60  1  0  0  0  0
 24 29  2  0  0  0  0
 24 30  1  0  0  0  0
 25 61  1  0  0  0  0
 26 62  1  0  0  0  0
 27 28  1  0  0  0  0
 27 33  1  0  0  0  0
 27 34  1  0  0  0  0
 27 35  1  0  0  0  0
 28 31  2  0  0  0  0
 28 32  1  0  0  0  0
 29 31  1  0  0  0  0
 29 63  1  0  0  0  0
 30 32  2  0  0  0  0
 30 64  1  0  0  0  0
 31 66  1  0  0  0  0
 32 67  1  0  0  0  0
 33 68  1  0  0  0  0
 33 69  1  0  0  0  0
 33 70  1  0  0  0  0
 34 71  1  0  0  0  0
 34 72  1  0  0  0  0
 34 73  1  0  0  0  0
 35 74  1  0  0  0  0
 35 75  1  0  0  0  0
 35 76  1  0  0  0  0
M  END
> <PUBCHEM_COMPOUND_CID>
5405

> <PUBCHEM_COMPOUND_CANONICALIZED>
1

> <PUBCHEM_CACTVS_COMPLEXITY>
582

> <PUBCHEM_CACTVS_HBOND_ACCEPTOR>
3

> <PUBCHEM_CACTVS_HBOND_DONOR>
2

> <PUBCHEM_CACTVS_ROTATABLE_BOND>
9

> <PUBCHEM_CACTVS_SUBSKEYS>
AAADcfB+MAAAAAAAAAAAAAAAAAAAAAAAAAA8YMEAAAAAAAABUAAAHgAACAAAD1ThmAYyAIMAAgCAAiBCAAACAAAgAAAIiAAICIgINiKAkRCEcAAkwAGImAewwPAPwAAAAAAAAACAAAAAAAAAAAAAAAAAAA==

> <PUBCHEM_IUPAC_OPENEYE_NAME>
1-(4-tert-butylphenyl)-4-[4-[hydroxy(diphenyl)methyl]-1-piperidyl]butan-1-ol

> <PUBCHEM_IUPAC_CAS_NAME>
1-(4-tert-butylphenyl)-4-[4-[hydroxy(diphenyl)methyl]-1-piperidinyl]-1-butanol

> <PUBCHEM_IUPAC_NAME_MARKUP>
1-(4-<I>tert</I>-butylphenyl)-4-[4-[hydroxy(diphenyl)methyl]piperidin-1-yl]butan-1-ol

> <PUBCHEM_IUPAC_NAME>
1-(4-tert-butylphenyl)-4-[4-[hydroxy(diphenyl)methyl]piperidin-1-yl]butan-1-ol

> <PUBCHEM_IUPAC_SYSTEMATIC_NAME>
1-(4-tert-butylphenyl)-4-[4-[oxidanyl(diphenyl)methyl]piperidin-1-yl]butan-1-ol

> <PUBCHEM_IUPAC_TRADITIONAL_NAME>
1-(4-tert-butylphenyl)-4-[4-[hydroxy(diphenyl)methyl]piperidino]butan-1-ol

> <PUBCHEM_IUPAC_INCHI>
InChI=1S/C32H41NO2/c1-31(2,3)26-18-16-25(17-19-26)30(34)15-10-22-33-23-20-29(21-24-33)32(35,27-11-6-4-7-12-27)28-13-8-5-9-14-28/h4-9,11-14,16-19,29-30,34-35H,10,15,20-24H2,1-3H3

> <PUBCHEM_IUPAC_INCHIKEY>
GUGOEEXESWIERI-UHFFFAOYSA-N

> <PUBCHEM_XLOGP3_AA>
6.6

> <PUBCHEM_EXACT_MASS>
471.313729551

> <PUBCHEM_MOLECULAR_FORMULA>
C32H41NO2

> <PUBCHEM_MOLECULAR_WEIGHT>
471.7

> <PUBCHEM_SMILES>
CC(C)(C)C1=CC=C(C=C1)C(CCCN2CCC(CC2)C(C3=CC=CC=C3)(C4=CC=CC=C4)O)O

> <PUBCHEM_CONNECTIVITY_SMILES>
CC(C)(C)C1=CC=C(C=C1)C(CCCN2CCC(CC2)C(C3=CC=CC=C3)(C4=CC=CC=C4)O)O

> <PUBCHEM_CACTVS_TPSA>
43.7

> <PUBCHEM_MONOISOTOPIC_WEIGHT>
471.313729551

> <PUBCHEM_TOTAL_CHARGE>
0

> <PUBCHEM_HEAVY_ATOM_COUNT>
35

> <PUBCHEM_ATOM_DEF_STEREO_COUNT>
0

> <PUBCHEM_ATOM_UDEF_STEREO_COUNT>
1

> <PUBCHEM_BOND_DEF_STEREO_COUNT>
0

> <PUBCHEM_BOND_UDEF_STEREO_COUNT>
0

> <PUBCHEM_ISOTOPIC_ATOM_COUNT>
0

> <PUBCHEM_COMPONENT_COUNT>
1

> <PUBCHEM_CACTVS_TAUTO_COUNT>
-1

> <PUBCHEM_COORDINATE_TYPE>
1
5
255

> <PUBCHEM_BONDANNOTATIONS>
11  15  8
11  17  8
12  16  8
12  18  8
15  20  8
16  21  8
17  22  8
18  23  8
19  2  3
20  25  8
21  26  8
22  25  8
23  26  8
24  29  8
24  30  8
28  31  8
28  32  8
29  31  8
30  32  8

$$$$
2247
  -OEChem-08112611012D

 65 69  0     0  0  0  0  0  0999 V2000
    2.3176    5.8303    0.0000 F   0  0  0  0  0  0  0  0  0  0  0  0
   11.2619   -5.8303    0.0000 O   0  0  0  0  0  0  0  0  0  0  0  0
    7.7619   -1.5002    0.0000 N   0  0  0  0  0  0  0  0  0  0  0  0
    6.2619    1.0979    0.0000 N   0  0  0  0  0  0  0  0  0  0  0  0
    4.6783    1.9026    0.0000 N   0  0  0  0  0  0  0  0  0  0  0  0
    4.6783    0.2931    0.0000 N   0  0  0  0  0  0  0  0  0  0  0  0
    6.7619    0.2318    0.0000 C   0  0  0  0  0  0  0  0  0  0  0  0
    6.2619   -0.6342    0.0000 C   0  0  0  0  0  0  0  0  0  0  0  0
    7.7619    0.2318    0.0000 C   0  0  0  0  0  0  0  0  0  0  0  0
    6.7619   -1.5002    0.0000 C   0  0  0  0  0  0  0  0  0  0  0  0
    8.2619   -0.6342    0.0000 C   0  0  0  0  0  0  0  0  0  0  0  0
    8.2619   -2.3662    0.0000 C   0  0  0  0  0  0  0  0  0  0  0  0
    9.2619   -2.3662    0.0000 C   0  0  0  0  0  0  0  0  0  0  0  0
    5.2619    1.0979    0.0000 C   0  0  0  0  0  0  0  0  0  0  0  0
    9.7619   -3.2323    0.0000 C   0  0  0  0  0  0  0  0  0  0  0  0
    3.7321    1.5979    0.0000 C   0  0  0  0  0  0  0  0  0  0  0  0
    4.9889    2.8531    0.0000 C   0  0  0  0  0  0  0  0  0  0  0  0
    3.7321    0.5979    0.0000 C   0  0  0  0  0  0  0  0  0  0  0  0
    2.8660    2.0979    0.0000 C   0  0  0  0  0  0  0  0  0  0  0  0
    4.3211    3.5974    0.0000 C   0  0  0  0  0  0  0  0  0  0  0  0
    9.2619   -4.0983    0.0000 C   0  0  0  0  0  0  0  0  0  0  0  0
   10.7619   -3.2323    0.0000 C   0  0  0  0  0  0  0  0  0  0  0  0
    2.8660    0.0979    0.0000 C   0  0  0  0  0  0  0  0  0  0  0  0
    2.0000    1.5979    0.0000 C   0  0  0  0  0  0  0  0  0  0  0  0
    2.0000    0.5979    0.0000 C   0  0  0  0  0  0  0  0  0  0  0  0
    9.7619   -4.9643    0.0000 C   0  0  0  0  0  0  0  0  0  0  0  0
   11.2619   -4.0983    0.0000 C   0  0  0  0  0  0  0  0  0  0  0  0
    3.3426    3.3912    0.0000 C   0  0  0  0  0  0  0  0  0  0  0  0
    4.6318    4.5480    0.0000 C   0  0  0  0  0  0  0  0  0  0  0  0
   10.7619   -4.9643    0.0000 C   0  0  0  0  0  0  0  0  0  0  0  0
    2.6747    4.1355    0.0000 C   0  0  0  0  0  0  0  0  0  0  0  0
    3.9639    5.2923    0.0000 C   0  0  0  0  0  0  0  0  0  0  0  0
    2.9854    5.0860    0.0000 C   0  0  0  0  0  0  0  0  0  0  0  0
   12.2619   -5.8303    0.0000 C   0  0  0  0  0  0  0  0  0  0  0  0
    7.0719    0.7688    0.0000 H   0  0  0  0  0  0  0  0  0  0  0  0
    5.7869   -0.2357    0.0000 H   0  0  0  0  0  0  0  0  0  0  0  0
    5.7869   -1.0327    0.0000 H   0  0  0  0  0  0  0  0  0  0  0  0
    8.3445    0.4439    0.0000 H   0  0  0  0  0  0  0  0  0  0  0  0
    7.6542    0.8424    0.0000 H   0  0  0  0  0  0  0  0  0  0  0  0
    6.1793   -1.7123    0.0000 H   0  0  0  0  0  0  0  0  0  0  0  0
    6.8695   -2.1108    0.0000 H   0  0  0  0  0  0  0  0  0  0  0  0
    8.7368   -1.0327    0.0000 H   0  0  0  0  0  0  0  0  0  0  0  0
    8.7368   -0.2357    0.0000 H   0  0  0  0  0  0  0  0  0  0  0  0
    7.6793   -2.5783    0.0000 H   0  0  0  0  0  0  0  0  0  0  0  0
    8.3695   -2.9768    0.0000 H   0  0  0  0  0  0  0  0  0  0  0  0
    6.5719    1.6348    0.0000 H   0  0  0  0  0  0  0  0  0  0  0  0
    9.8445   -2.1542    0.0000 H   0  0  0  0  0  0  0  0  0  0  0  0
    9.1542   -1.7557    0.0000 H   0  0  0  0  0  0  0  0  0  0  0  0
    5.5359    2.5611    0.0000 H   0  0  0  0  0  0  0  0  0  0  0  0
    5.3715    3.3410    0.0000 H   0  0  0  0  0  0  0  0  0  0  0  0
    2.8660    2.7179    0.0000 H   0  0  0  0  0  0  0  0  0  0  0  0
    8.6419   -4.0983    0.0000 H   0  0  0  0  0  0  0  0  0  0  0  0
   11.0719   -2.6953    0.0000 H   0  0  0  0  0  0  0  0  0  0  0  0
    2.8660   -0.5221    0.0000 H   0  0  0  0  0  0  0  0  0  0  0  0
    1.4631    1.9079    0.0000 H   0  0  0  0  0  0  0  0  0  0  0  0
    1.4631    0.2879    0.0000 H   0  0  0  0  0  0  0  0  0  0  0  0
    9.4519   -5.5012    0.0000 H   0  0  0  0  0  0  0  0  0  0  0  0
   11.8819   -4.0983    0.0000 H   0  0  0  0  0  0  0  0  0  0  0  0
    3.1500    2.8019    0.0000 H   0  0  0  0  0  0  0  0  0  0  0  0
    5.2384    4.6758    0.0000 H   0  0  0  0  0  0  0  0  0  0  0  0
    2.0681    4.0077    0.0000 H   0  0  0  0  0  0  0  0  0  0  0  0
    4.1565    5.8816    0.0000 H   0  0  0  0  0  0  0  0  0  0  0  0
   12.2619   -6.4503    0.0000 H   0  0  0  0  0  0  0  0  0  0  0  0
   12.8819   -5.8303    0.0000 H   0  0  0  0  0  0  0  0  0  0  0  0
   12.2619   -5.2103    0.0000 H   0  0  0  0  0  0  0  0  0  0  0  0
  1 33  1  0  0  0  0
  2 30  1  0  0  0  0
  2 34  1  0  0  0  0
  3 10  1  0  0  0  0
  3 11  1  0  0  0  0
  3 12  1  0  0  0  0
  4  7  1  0  0  0  0
  4 14  1  0  0  0  0
  4 46  1  0  0  0  0
  5 14  1  0  0  0  0
  5 16  1  0  0  0  0
  5 17  1  0  0  0  0
  6 14  2  0  0  0  0
  6 18  1  0  0  0  0
  7  8  1  0  0  0  0
  7  9  1  0  0  0  0
  7 35  1  0  0  0  0
  8 10  1  0  0  0  0
  8 36  1  0  0  0  0
  8 37  1  0  0  0  0
  9 11  1  0  0  0  0
  9 38  1  0  0  0  0
  9 39  1  0  0  0  0
 10 40  1  0  0  0  0
 10 41  1  0  0  0  0
 11 42  1  0  0  0  0
 11 43  1  0  0  0  0
 12 13  1  0  0  0  0
 12 44  1  0  0  0  0
 12 45  1  0  0  0  0
 13 15  1  0  0  0  0
 13 47  1  0  0  0  0
 13 48  1  0  0  0  0
 15 21  2  0  0  0  0
 15 22  1  0  0  0  0
 16 18  1  0  0  0  0
 16 19  2  0  0  0  0
 17 20  1  0  0  0  0
 17 49  1  0  0  0  0
 17 50  1  0  0  0  0
 18 23  2  0  0  0  0
 19 24  1  0  0  0  0
 19 51  1  0  0  0  0
 20 28  2  0  0  0  0
 20 29  1  0  0  0  0
 21 26  1  0  0  0  0
 21 52  1  0  0  0  0
 22 27  2  0  0  0  0
 22 53  1  0  0  0  0
 23 25  1  0  0  0  0
 23 54  1  0  0  0  0
 24 25  2  0  0  0  0
 24 55  1  0  0  0  0
 25 56  1  0  0  0  0
 26 30  2  0  0  0  0
 26 57  1  0  0  0  0
 27 30  1  0  0  0  0
 27 58  1  0  0  0  0
 28 31  1  0  0  0  0
 28 59  1  0  0  0  0
 29 32  2  0  0  0  0
 29 60  1  0  0  0  0
 31 33  2  0  0  0  0
 31 61  1  0  0  0  0
 32 33  1  0  0  0  0
 32 62  1  0  0  0  0
 34 63  1  0  0  0  0
 34 64  1  0  0  0  0
 34 65  1  0  0  0  0
M  END
> <PUBCHEM_COMPOUND_CID>
2247

> <PUBCHEM_COMPOUND_CANONICALIZED>
1

> <PUBCHEM_CACTVS_COMPLEXITY>
599

> <PUBCHEM_CACTVS_HBOND_ACCEPTOR>
5

> <PUBCHEM_CACTVS_HBOND_DONOR>
1

> <PUBCHEM_CACTVS_ROTATABLE_BOND>
8

> <PUBCHEM_CACTVS_SUBSKEYS>
AAADceB7oQAAAAAAAAAAAAAAAAAAAWAAAAA8YMEAAAAAAFgB9AAAHwAQAAAADCzBng4z1rfMFACgAyRiZACCiC0hMqAJ2KA+fJiMbqLE+ZuUMChs0BPI6CeQwIAOIAAAAAAAACBAAAAAAAAAQAAAAAAAAA==

> <PUBCHEM_IUPAC_OPENEYE_NAME>
1-[(4-fluorophenyl)methyl]-N-[1-[2-(4-methoxyphenyl)ethyl]-4-piperidyl]benzimidazol-2-amine

> <PUBCHEM_IUPAC_CAS_NAME>
1-[(4-fluorophenyl)methyl]-N-[1-[2-(4-methoxyphenyl)ethyl]-4-piperidinyl]-2-benzimidazolamine

> <PUBCHEM_IUPAC_NAME_MARKUP>
1-[(4-fluorophenyl)methyl]-<I>N</I>-[1-[2-(4-methoxyphenyl)ethyl]piperidin-4-yl]benzimidazol-2-amine

> <PUBCHEM_IUPAC_NAME>
1-[(4-fluorophenyl)methyl]-N-[1-[2-(4-methoxyphenyl)ethyl]piperidin-4-yl]benzimidazol-2-amine

> <PUBCHEM_IUPAC_SYSTEMATIC_NAME>
1-[(4-fluorophenyl)methyl]-N-[1-[2-(4-methoxyphenyl)ethyl]piperidin-4-yl]benzimidazol-2-amine

> <PUBCHEM_IUPAC_TRADITIONAL_NAME>
[1-(4-fluorobenzyl)benzimidazol-2-yl]-[1-[2-(4-methoxyphenyl)ethyl]-4-piperidyl]amine

> <PUBCHEM_IUPAC_INCHI>
InChI=1S/C28H31FN4O/c1-34-25-12-8-21(9-13-25)14-17-32-18-15-24(16-19-32)30-28-31-26-4-2-3-5-27(26)33(28)20-22-6-10-23(29)11-7-22/h2-13,24H,14-20H2,1H3,(H,30,31)

> <PUBCHEM_IUPAC_INCHIKEY>
GXDALQBWZGODGZ-UHFFFAOYSA-N

> <PUBCHEM_XLOGP3_AA>
6

> <PUBCHEM_EXACT_MASS>
458.24818979

> <PUBCHEM_MOLECULAR_FORMULA>
C28H31FN4O

> <PUBCHEM_MOLECULAR_WEIGHT>
458.6

> <PUBCHEM_SMILES>
COC1=CC=C(C=C1)CCN2CCC(CC2)NC3=NC4=CC=CC=C4N3CC5=CC=C(C=C5)F

> <PUBCHEM_CONNECTIVITY_SMILES>
COC1=CC=C(C=C1)CCN2CCC(CC2)NC3=NC4=CC=CC=C4N3CC5=CC=C(C=C5)F

> <PUBCHEM_CACTVS_TPSA>
42.3

> <PUBCHEM_MONOISOTOPIC_WEIGHT>
458.24818979

> <PUBCHEM_TOTAL_CHARGE>
0

> <PUBCHEM_HEAVY_ATOM_COUNT>
34

> <PUBCHEM_ATOM_DEF_STEREO_COUNT>
0

> <PUBCHEM_ATOM_UDEF_STEREO_COUNT>
0

> <PUBCHEM_BOND_DEF_STEREO_COUNT>
0

> <PUBCHEM_BOND_UDEF_STEREO_COUNT>
0

> <PUBCHEM_ISOTOPIC_ATOM_COUNT>
0

> <PUBCHEM_COMPONENT_COUNT>
1

> <PUBCHEM_CACTVS_TAUTO_COUNT>
-1

> <PUBCHEM_COORDINATE_TYPE>
1
5
255

> <PUBCHEM_BONDANNOTATIONS>
15  21  8
15  22  8
16  18  8
16  19  8
18  23  8
19  24  8
20  28  8
20  29  8
21  26  8
22  27  8
23  25  8
24  25  8
26  30  8
27  30  8
28  31  8
29  32  8
31  33  8
32  33  8
5  14  8
5  16  8
6  14  8
6  18  8

$$$$
3827
  -OEChem-08112611012D

 41 44  0     0  0  0  0  0  0999 V2000
    2.3899    1.9496    0.0000 S   0  0  0  0  0  0  0  0  0  0  0  0
    3.5698    3.5458    0.0000 O   0  0  0  0  0  0  0  0  0  0  0  0
    4.5037   -2.5458    0.0000 N   0  0  0  0  0  0  0  0  0  0  0  0
    4.5037   -0.5458    0.0000 C   0  0  0  0  0  0  0  0  0  0  0  0
    3.6377   -1.0458    0.0000 C   0  0  0  0  0  0  0  0  0  0  0  0
    5.3697   -1.0458    0.0000 C   0  0  0  0  0  0  0  0  0  0  0  0
    3.6377   -2.0458    0.0000 C   0  0  0  0  0  0  0  0  0  0  0  0
    5.3697   -2.0458    0.0000 C   0  0  0  0  0  0  0  0  0  0  0  0
    4.5037    0.4542    0.0000 C   0  0  0  0  0  0  0  0  0  0  0  0
    5.4047    0.8881    0.0000 C   0  0  0  0  0  0  0  0  0  0  0  0
    3.6027    0.8881    0.0000 C   0  0  0  0  0  0  0  0  0  0  0  0
    5.6272    1.8630    0.0000 C   0  0  0  0  0  0  0  0  0  0  0  0
    4.5037   -3.5458    0.0000 C   0  0  0  0  0  0  0  0  0  0  0  0
    3.3802    1.8630    0.0000 C   0  0  0  0  0  0  0  0  0  0  0  0
    5.0037    2.6448    0.0000 C   0  0  0  0  0  0  0  0  0  0  0  0
    4.0037    2.6448    0.0000 C   0  0  0  0  0  0  0  0  0  0  0  0
    6.1572    0.1679    0.0000 C   0  0  0  0  0  0  0  0  0  0  0  0
    2.7480    0.3804    0.0000 C   0  0  0  0  0  0  0  0  0  0  0  0
    6.6177    2.1853    0.0000 C   0  0  0  0  0  0  0  0  0  0  0  0
    2.0000    1.0351    0.0000 C   0  0  0  0  0  0  0  0  0  0  0  0
    7.1549    0.4672    0.0000 C   0  0  0  0  0  0  0  0  0  0  0  0
    7.3867    1.4827    0.0000 C   0  0  0  0  0  0  0  0  0  0  0  0
    3.4256   -0.4632    0.0000 H   0  0  0  0  0  0  0  0  0  0  0  0
    3.0271   -1.1535    0.0000 H   0  0  0  0  0  0  0  0  0  0  0  0
    5.9803   -1.1535    0.0000 H   0  0  0  0  0  0  0  0  0  0  0  0
    5.5818   -0.4632    0.0000 H   0  0  0  0  0  0  0  0  0  0  0  0
    3.0271   -1.9381    0.0000 H   0  0  0  0  0  0  0  0  0  0  0  0
    3.4256   -2.6284    0.0000 H   0  0  0  0  0  0  0  0  0  0  0  0
    5.5818   -2.6284    0.0000 H   0  0  0  0  0  0  0  0  0  0  0  0
    5.9803   -1.9382    0.0000 H   0  0  0  0  0  0  0  0  0  0  0  0
    3.8837   -3.5458    0.0000 H   0  0  0  0  0  0  0  0  0  0  0  0
    4.5037   -4.1658    0.0000 H   0  0  0  0  0  0  0  0  0  0  0  0
    5.1237   -3.5458    0.0000 H   0  0  0  0  0  0  0  0  0  0  0  0
    5.5623    2.9138    0.0000 H   0  0  0  0  0  0  0  0  0  0  0  0
    4.8658    3.2493    0.0000 H   0  0  0  0  0  0  0  0  0  0  0  0
    6.0123   -0.4349    0.0000 H   0  0  0  0  0  0  0  0  0  0  0  0
    2.6914   -0.2370    0.0000 H   0  0  0  0  0  0  0  0  0  0  0  0
    6.7487    2.7913    0.0000 H   0  0  0  0  0  0  0  0  0  0  0  0
    1.3955    0.8972    0.0000 H   0  0  0  0  0  0  0  0  0  0  0  0
    7.6078    0.0438    0.0000 H   0  0  0  0  0  0  0  0  0  0  0  0
    7.9785    1.6678    0.0000 H   0  0  0  0  0  0  0  0  0  0  0  0
  1 14  1  0  0  0  0
  1 20  1  0  0  0  0
  2 16  2  0  0  0  0
  3  7  1  0  0  0  0
  3  8  1  0  0  0  0
  3 13  1  0  0  0  0
  4  5  1  0  0  0  0
  4  6  1  0  0  0  0
  4  9  2  0  0  0  0
  5  7  1  0  0  0  0
  5 23  1  0  0  0  0
  5 24  1  0  0  0  0
  6  8  1  0  0  0  0
  6 25  1  0  0  0  0
  6 26  1  0  0  0  0
  7 27  1  0  0  0  0
  7 28  1  0  0  0  0
  8 29  1  0  0  0  0
  8 30  1  0  0  0  0
  9 10  1  0  0  0  0
  9 11  1  0  0  0  0
 10 12  1  0  0  0  0
 10 17  2  0  0  0  0
 11 14  2  0  0  0  0
 11 18  1  0  0  0  0
 12 15  1  0  0  0  0
 12 19  2  0  0  0  0
 13 31  1  0  0  0  0
 13 32  1  0  0  0  0
 13 33  1  0  0  0  0
 14 16  1  0  0  0  0
 15 16  1  0  0  0  0
 15 34  1  0  0  0  0
 15 35  1  0  0  0  0
 17 21  1  0  0  0  0
 17 36  1  0  0  0  0
 18 20  2  0  0  0  0
 18 37  1  0  0  0  0
 19 22  1  0  0  0  0
 19 38  1  0  0  0  0
 20 39  1  0  0  0  0
 21 22  2  0  0  0  0
 21 40  1  0  0  0  0
 22 41  1  0  0  0  0
M  END
> <PUBCHEM_COMPOUND_CID>
3827

> <PUBCHEM_COMPOUND_CANONICALIZED>
1

> <PUBCHEM_CACTVS_COMPLEXITY>
476

> <PUBCHEM_CACTVS_HBOND_ACCEPTOR>
3

> <PUBCHEM_CACTVS_HBOND_DONOR>
0

> <PUBCHEM_CACTVS_ROTATABLE_BOND>
0

> <PUBCHEM_CACTVS_SUBSKEYS>
AAADceB6IABAAAAAAAAAAAAAAAAAASAAAAA8QAAABgAAAACRwAAAHgQAAAAADATF2ASyAYMAAAiMAqBSAAADAIAkCBBIiBkIAMgIIDKglRCEIQAggACoiQcYiMCOgAAAAAAQAAAAAAAAACAAAAAAAAAAAA==

> <PUBCHEM_IUPAC_OPENEYE_NAME>
2-(1-methyl-4-piperidylidene)-6-thiatricyclo[8.4.0.03,7]tetradeca-1(14),3(7),4,10,12-pentaen-8-one

> <PUBCHEM_IUPAC_CAS_NAME>
2-(1-methyl-4-piperidinylidene)-6-thiatricyclo[8.4.0.03,7]tetradeca-1(14),3(7),4,10,12-pentaen-8-one

> <PUBCHEM_IUPAC_NAME_MARKUP>
2-(1-methylpiperidin-4-ylidene)-6-thiatricyclo[8.4.0.0<SUP>3,7</SUP>]tetradeca-1(14),3(7),4,10,12-pentaen-8-one

> <PUBCHEM_IUPAC_NAME>
2-(1-methylpiperidin-4-ylidene)-6-thiatricyclo[8.4.0.03,7]tetradeca-1(14),3(7),4,10,12-pentaen-8-one

> <PUBCHEM_IUPAC_SYSTEMATIC_NAME>
2-(1-methylpiperidin-4-ylidene)-6-thiatricyclo[8.4.0.03,7]tetradeca-1(14),3(7),4,10,12-pentaen-8-one

> <PUBCHEM_IUPAC_TRADITIONAL_NAME>
2-(1-methyl-4-piperidylidene)-6-thiatricyclo[8.4.0.03,7]tetradeca-1(14),3(7),4,10,12-pentaen-8-one

> <PUBCHEM_IUPAC_INCHI>
InChI=1S/C19H19NOS/c1-20-9-6-13(7-10-20)18-15-5-3-2-4-14(15)12-17(21)19-16(18)8-11-22-19/h2-5,8,11H,6-7,9-10,12H2,1H3

> <PUBCHEM_IUPAC_INCHIKEY>
ZCVMWBYGMWKGHF-UHFFFAOYSA-N

> <PUBCHEM_XLOGP3_AA>
3.2

> <PUBCHEM_EXACT_MASS>
309.11873540

> <PUBCHEM_MOLECULAR_FORMULA>
C19H19NOS

> <PUBCHEM_MOLECULAR_WEIGHT>
309.4

> <PUBCHEM_SMILES>
CN1CCC(=C2C3=C(C(=O)CC4=CC=CC=C42)SC=C3)CC1

> <PUBCHEM_CONNECTIVITY_SMILES>
CN1CCC(=C2C3=C(C(=O)CC4=CC=CC=C42)SC=C3)CC1

> <PUBCHEM_CACTVS_TPSA>
48.6

> <PUBCHEM_MONOISOTOPIC_WEIGHT>
309.11873540

> <PUBCHEM_TOTAL_CHARGE>
0

> <PUBCHEM_HEAVY_ATOM_COUNT>
22

> <PUBCHEM_ATOM_DEF_STEREO_COUNT>
0

> <PUBCHEM_ATOM_UDEF_STEREO_COUNT>
0

> <PUBCHEM_BOND_DEF_STEREO_COUNT>
0

> <PUBCHEM_BOND_UDEF_STEREO_COUNT>
0

> <PUBCHEM_ISOTOPIC_ATOM_COUNT>
0

> <PUBCHEM_COMPONENT_COUNT>
1

> <PUBCHEM_CACTVS_TAUTO_COUNT>
-1

> <PUBCHEM_COORDINATE_TYPE>
1
5
255

> <PUBCHEM_BONDANNOTATIONS>
1  14  8
1  20  8
10  12  8
10  17  8
11  14  8
11  18  8
12  19  8
17  21  8
18  20  8
19  22  8
21  22  8

$$$$
4615
  -OEChem-08112611012D

 62 66  0     0  0  0  0  0  0999 V2000
    6.2619   -2.5972    0.0000 O   0  0  0  0  0  0  0  0  0  0  0  0
    9.2136    0.9335    0.0000 N   0  0  0  0  0  0  0  0  0  0  0  0
    7.2566    0.5210    0.0000 N   0  0  0  0  0  0  0  0  0  0  0  0
    4.6783   -1.7925    0.0000 N   0  0  0  0  0  0  0  0  0  0  0  0
    4.6783   -3.4019    0.0000 N   0  0  0  0  0  0  0  0  0  0  0  0
    8.5458    1.6778    0.0000 C   0  0  0  0  0  0  0  0  0  0  0  0
    8.9030   -0.0171    0.0000 C   0  0  0  0  0  0  0  0  0  0  0  0
    7.5673    1.4715    0.0000 C   0  0  0  0  0  0  0  0  0  0  0  0
    7.9245   -0.2233    0.0000 C   0  0  0  0  0  0  0  0  0  0  0  0
   10.1921    1.1397    0.0000 C   0  0  0  0  0  0  0  0  0  0  0  0
    6.2781    0.3148    0.0000 C   0  0  0  0  0  0  0  0  0  0  0  0
    5.9674   -0.6357    0.0000 C   0  0  0  0  0  0  0  0  0  0  0  0
   10.5028    2.0902    0.0000 C   0  0  0  0  0  0  0  0  0  0  0  0
   10.8600    0.3954    0.0000 C   0  0  0  0  0  0  0  0  0  0  0  0
    4.9889   -0.8419    0.0000 C   0  0  0  0  0  0  0  0  0  0  0  0
    9.8349    2.8345    0.0000 C   0  0  0  0  0  0  0  0  0  0  0  0
   11.8385    0.6016    0.0000 C   0  0  0  0  0  0  0  0  0  0  0  0
   11.4813    2.2964    0.0000 C   0  0  0  0  0  0  0  0  0  0  0  0
   10.5493   -0.5551    0.0000 C   0  0  0  0  0  0  0  0  0  0  0  0
    3.7321   -2.0972    0.0000 C   0  0  0  0  0  0  0  0  0  0  0  0
    5.2619   -2.5972    0.0000 C   0  0  0  0  0  0  0  0  0  0  0  0
    3.7321   -3.0972    0.0000 C   0  0  0  0  0  0  0  0  0  0  0  0
   10.1456    3.7850    0.0000 C   0  0  0  0  0  0  0  0  0  0  0  0
   12.5063   -0.1427    0.0000 C   0  0  0  0  0  0  0  0  0  0  0  0
   11.7920    3.2469    0.0000 C   0  0  0  0  0  0  0  0  0  0  0  0
   11.2171   -1.2994    0.0000 C   0  0  0  0  0  0  0  0  0  0  0  0
    2.8660   -1.5972    0.0000 C   0  0  0  0  0  0  0  0  0  0  0  0
   11.1241    3.9912    0.0000 C   0  0  0  0  0  0  0  0  0  0  0  0
   12.1957   -1.0932    0.0000 C   0  0  0  0  0  0  0  0  0  0  0  0
    2.8660   -3.5972    0.0000 C   0  0  0  0  0  0  0  0  0  0  0  0
    2.0000   -2.0972    0.0000 C   0  0  0  0  0  0  0  0  0  0  0  0
    2.0000   -3.0972    0.0000 C   0  0  0  0  0  0  0  0  0  0  0  0
    9.0721    2.0054    0.0000 H   0  0  0  0  0  0  0  0  0  0  0  0
    8.3145    2.2530    0.0000 H   0  0  0  0  0  0  0  0  0  0  0  0
    8.9235   -0.6367    0.0000 H   0  0  0  0  0  0  0  0  0  0  0  0
    9.5168   -0.1044    0.0000 H   0  0  0  0  0  0  0  0  0  0  0  0
    7.5467    2.0912    0.0000 H   0  0  0  0  0  0  0  0  0  0  0  0
    6.9535    1.5589    0.0000 H   0  0  0  0  0  0  0  0  0  0  0  0
    7.3981   -0.5509    0.0000 H   0  0  0  0  0  0  0  0  0  0  0  0
    8.1557   -0.7985    0.0000 H   0  0  0  0  0  0  0  0  0  0  0  0
    9.7781    1.6012    0.0000 H   0  0  0  0  0  0  0  0  0  0  0  0
    6.2575    0.9345    0.0000 H   0  0  0  0  0  0  0  0  0  0  0  0
    5.6643    0.4022    0.0000 H   0  0  0  0  0  0  0  0  0  0  0  0
    5.9880   -1.2554    0.0000 H   0  0  0  0  0  0  0  0  0  0  0  0
    6.5813   -0.7231    0.0000 H   0  0  0  0  0  0  0  0  0  0  0  0
    4.9684   -0.2223    0.0000 H   0  0  0  0  0  0  0  0  0  0  0  0
    4.3751   -0.7546    0.0000 H   0  0  0  0  0  0  0  0  0  0  0  0
    9.2283    2.7067    0.0000 H   0  0  0  0  0  0  0  0  0  0  0  0
   12.0311    1.1909    0.0000 H   0  0  0  0  0  0  0  0  0  0  0  0
   11.8954    1.8350    0.0000 H   0  0  0  0  0  0  0  0  0  0  0  0
    9.9426   -0.6830    0.0000 H   0  0  0  0  0  0  0  0  0  0  0  0
    4.8709   -3.9912    0.0000 H   0  0  0  0  0  0  0  0  0  0  0  0
    9.7315    4.2465    0.0000 H   0  0  0  0  0  0  0  0  0  0  0  0
   13.1130   -0.0148    0.0000 H   0  0  0  0  0  0  0  0  0  0  0  0
   12.3986    3.3748    0.0000 H   0  0  0  0  0  0  0  0  0  0  0  0
   11.0245   -1.8888    0.0000 H   0  0  0  0  0  0  0  0  0  0  0  0
    2.8660   -0.9772    0.0000 H   0  0  0  0  0  0  0  0  0  0  0  0
   11.3167    4.5806    0.0000 H   0  0  0  0  0  0  0  0  0  0  0  0
   12.6097   -1.5547    0.0000 H   0  0  0  0  0  0  0  0  0  0  0  0
    2.8660   -4.2172    0.0000 H   0  0  0  0  0  0  0  0  0  0  0  0
    1.4631   -1.7872    0.0000 H   0  0  0  0  0  0  0  0  0  0  0  0
    1.4631   -3.4072    0.0000 H   0  0  0  0  0  0  0  0  0  0  0  0
  1 21  2  0  0  0  0
  2  6  1  0  0  0  0
  2  7  1  0  0  0  0
  2 10  1  0  0  0  0
  3  8  1  0  0  0  0
  3  9  1  0  0  0  0
  3 11  1  0  0  0  0
  4 15  1  0  0  0  0
  4 20  1  0  0  0  0
  4 21  1  0  0  0  0
  5 21  1  0  0  0  0
  5 22  1  0  0  0  0
  5 52  1  0  0  0  0
  6  8  1  0  0  0  0
  6 33  1  0  0  0  0
  6 34  1  0  0  0  0
  7  9  1  0  0  0  0
  7 35  1  0  0  0  0
  7 36  1  0  0  0  0
  8 37  1  0  0  0  0
  8 38  1  0  0  0  0
  9 39  1  0  0  0  0
  9 40  1  0  0  0  0
 10 13  1  0  0  0  0
 10 14  1  0  0  0  0
 10 41  1  0  0  0  0
 11 12  1  0  0  0  0
 11 42  1  0  0  0  0
 11 43  1  0  0  0  0
 12 15  1  0  0  0  0
 12 44  1  0  0  0  0
 12 45  1  0  0  0  0
 13 16  2  0  0  0  0
 13 18  1  0  0  0  0
 14 17  2  0  0  0  0
 14 19  1  0  0  0  0
 15 46  1  0  0  0  0
 15 47  1  0  0  0  0
 16 23  1  0  0  0  0
 16 48  1  0  0  0  0
 17 24  1  0  0  0  0
 17 49  1  0  0  0  0
 18 25  2  0  0  0  0
 18 50  1  0  0  0  0
 19 26  2  0  0  0  0
 19 51  1  0  0  0  0
 20 22  1  0  0  0  0
 20 27  2  0  0  0  0
 22 30  2  0  0  0  0
 23 28  2  0  0  0  0
 23 53  1  0  0  0  0
 24 29  2  0  0  0  0
 24 54  1  0  0  0  0
 25 28  1  0  0  0  0
 25 55  1  0  0  0  0
 26 29  1  0  0  0  0
 26 56  1  0  0  0  0
 27 31  1  0  0  0  0
 27 57  1  0  0  0  0
 28 58  1  0  0  0  0
 29 59  1  0  0  0  0
 30 32  1  0  0  0  0
 30 60  1  0  0  0  0
 31 32  2  0  0  0  0
 31 61  1  0  0  0  0
 32 62  1  0  0  0  0
M  END
> <PUBCHEM_COMPOUND_CID>
4615

> <PUBCHEM_COMPOUND_CANONICALIZED>
1

> <PUBCHEM_CACTVS_COMPLEXITY>
574

> <PUBCHEM_CACTVS_HBOND_ACCEPTOR>
3

> <PUBCHEM_CACTVS_HBOND_DONOR>
1

> <PUBCHEM_CACTVS_ROTATABLE_BOND>
7

> <PUBCHEM_CACTVS_SUBSKEYS>
AAADceB7oAAAAAAAAAAAAAAAAAAAAWAAAAA8YMEAAAAAAFgBUAAAHgAQAAAADCjBGAQxwIPAAACIAiRCUACCAAAhAgAIiAAIdIiIYCLA0ZGUIAholgLIyCcQgMAOAAAAAAAAACAAAAAAAAAAQAAAAAAAAA==

> <PUBCHEM_IUPAC_OPENEYE_NAME>
3-[3-(4-benzhydrylpiperazin-1-yl)propyl]-1H-benzimidazol-2-one

> <PUBCHEM_IUPAC_CAS_NAME>
3-[3-[4-(diphenylmethyl)-1-piperazinyl]propyl]-1H-benzimidazol-2-one

> <PUBCHEM_IUPAC_NAME_MARKUP>
3-[3-(4-benzhydrylpiperazin-1-yl)propyl]-1<I>H</I>-benzimidazol-2-one

> <PUBCHEM_IUPAC_NAME>
3-[3-(4-benzhydrylpiperazin-1-yl)propyl]-1H-benzimidazol-2-one

> <PUBCHEM_IUPAC_SYSTEMATIC_NAME>
3-[3-[4-(diphenylmethyl)piperazin-1-yl]propyl]-1H-benzimidazol-2-one

> <PUBCHEM_IUPAC_TRADITIONAL_NAME>
3-[3-(4-benzhydrylpiperazino)propyl]-1H-benzimidazol-2-one

> <PUBCHEM_IUPAC_INCHI>
InChI=1S/C27H30N4O/c32-27-28-24-14-7-8-15-25(24)31(27)17-9-16-29-18-20-30(21-19-29)26(22-10-3-1-4-11-22)23-12-5-2-6-13-23/h1-8,10-15,26H,9,16-21H2,(H,28,32)

> <PUBCHEM_IUPAC_INCHIKEY>
BAINIUMDFURPJM-UHFFFAOYSA-N

> <PUBCHEM_XLOGP3_AA>
4.1

> <PUBCHEM_EXACT_MASS>
426.24196159

> <PUBCHEM_MOLECULAR_FORMULA>
C27H30N4O

> <PUBCHEM_MOLECULAR_WEIGHT>
426.6

> <PUBCHEM_SMILES>
C1CN(CCN1CCCN2C3=CC=CC=C3NC2=O)C(C4=CC=CC=C4)C5=CC=CC=C5

> <PUBCHEM_CONNECTIVITY_SMILES>
C1CN(CCN1CCCN2C3=CC=CC=C3NC2=O)C(C4=CC=CC=C4)C5=CC=CC=C5

> <PUBCHEM_CACTVS_TPSA>
38.8

> <PUBCHEM_MONOISOTOPIC_WEIGHT>
426.24196159

> <PUBCHEM_TOTAL_CHARGE>
0

> <PUBCHEM_HEAVY_ATOM_COUNT>
32

> <PUBCHEM_ATOM_DEF_STEREO_COUNT>
0

> <PUBCHEM_ATOM_UDEF_STEREO_COUNT>
0

> <PUBCHEM_BOND_DEF_STEREO_COUNT>
0

> <PUBCHEM_BOND_UDEF_STEREO_COUNT>
0

> <PUBCHEM_ISOTOPIC_ATOM_COUNT>
0

> <PUBCHEM_COMPONENT_COUNT>
1

> <PUBCHEM_CACTVS_TAUTO_COUNT>
-1

> <PUBCHEM_COORDINATE_TYPE>
1
5
255

> <PUBCHEM_BONDANNOTATIONS>
13  16  8
13  18  8
14  17  8
14  19  8
16  23  8
17  24  8
18  25  8
19  26  8
20  22  8
20  27  8
22  30  8
23  28  8
24  29  8
25  28  8
26  29  8
27  31  8
30  32  8
31  32  8
4  20  8
4  21  8
5  21  8
5  22  8

$$$$
65906
  -OEChem-08112611012D

 57 61  0     1  0  0  0  0  0999 V2000
    2.3176    3.6653    0.0000 F   0  0  0  0  0  0  0  0  0  0  0  0
   12.2619   -2.7992    0.0000 O   0  0  0  0  0  0  0  0  0  0  0  0
    6.2619   -1.0672    0.0000 N   0  0  0  0  0  0  0  0  0  0  0  0
    9.2619   -1.0672    0.0000 N   0  0  3  0  0  0  0  0  0  0  0  0
    4.6783   -0.2625    0.0000 N   0  0  0  0  0  0  0  0  0  0  0  0
    4.6783   -1.8719    0.0000 N   0  0  0  0  0  0  0  0  0  0  0  0
   10.7619   -1.9332    0.0000 N   0  0  0  0  0  0  0  0  0  0  0  0
    9.2619   -2.7992    0.0000 N   0  0  0  0  0  0  0  0  0  0  0  0
    8.2619   -1.0672    0.0000 C   0  0  0  0  0  0  0  0  0  0  0  0
    7.7619   -0.2012    0.0000 C   0  0  0  0  0  0  0  0  0  0  0  0
    7.7619   -1.9332    0.0000 C   0  0  0  0  0  0  0  0  0  0  0  0
    6.7619   -0.2012    0.0000 C   0  0  0  0  0  0  0  0  0  0  0  0
    6.7619   -1.9332    0.0000 C   0  0  0  0  0  0  0  0  0  0  0  0
    5.2619   -1.0672    0.0000 C   0  0  0  0  0  0  0  0  0  0  0  0
    9.7619   -0.2012    0.0000 C   0  0  0  0  0  0  0  0  0  0  0  0
    9.7619   -1.9332    0.0000 C   0  0  0  0  0  0  0  0  0  0  0  0
    3.7321   -0.5672    0.0000 C   0  0  0  0  0  0  0  0  0  0  0  0
    4.9889    0.6881    0.0000 C   0  0  0  0  0  0  0  0  0  0  0  0
    3.7321   -1.5672    0.0000 C   0  0  0  0  0  0  0  0  0  0  0  0
    2.8660   -0.0672    0.0000 C   0  0  0  0  0  0  0  0  0  0  0  0
    4.3211    1.4324    0.0000 C   0  0  0  0  0  0  0  0  0  0  0  0
    2.8660   -2.0672    0.0000 C   0  0  0  0  0  0  0  0  0  0  0  0
    2.0000   -0.5672    0.0000 C   0  0  0  0  0  0  0  0  0  0  0  0
    2.0000   -1.5672    0.0000 C   0  0  0  0  0  0  0  0  0  0  0  0
   11.2619   -2.7992    0.0000 C   0  0  0  0  0  0  0  0  0  0  0  0
    4.6318    2.3829    0.0000 C   0  0  0  0  0  0  0  0  0  0  0  0
    3.3426    1.2261    0.0000 C   0  0  0  0  0  0  0  0  0  0  0  0
    9.7619   -3.6653    0.0000 C   0  0  0  0  0  0  0  0  0  0  0  0
   10.7619   -3.6653    0.0000 C   0  0  0  0  0  0  0  0  0  0  0  0
    3.9639    3.1272    0.0000 C   0  0  0  0  0  0  0  0  0  0  0  0
    2.6747    1.9705    0.0000 C   0  0  0  0  0  0  0  0  0  0  0  0
    2.9854    2.9210    0.0000 C   0  0  0  0  0  0  0  0  0  0  0  0
    8.5719   -0.5303    0.0000 H   0  0  0  0  0  0  0  0  0  0  0  0
    8.3445    0.0109    0.0000 H   0  0  0  0  0  0  0  0  0  0  0  0
    7.6542    0.4094    0.0000 H   0  0  0  0  0  0  0  0  0  0  0  0
    7.6542   -2.5438    0.0000 H   0  0  0  0  0  0  0  0  0  0  0  0
    8.3445   -2.1453    0.0000 H   0  0  0  0  0  0  0  0  0  0  0  0
    6.8695    0.4094    0.0000 H   0  0  0  0  0  0  0  0  0  0  0  0
    6.1793    0.0109    0.0000 H   0  0  0  0  0  0  0  0  0  0  0  0
    6.1793   -2.1453    0.0000 H   0  0  0  0  0  0  0  0  0  0  0  0
    6.8695   -2.5438    0.0000 H   0  0  0  0  0  0  0  0  0  0  0  0
   10.2988   -0.5112    0.0000 H   0  0  0  0  0  0  0  0  0  0  0  0
   10.0719    0.3358    0.0000 H   0  0  0  0  0  0  0  0  0  0  0  0
    9.2249    0.1088    0.0000 H   0  0  0  0  0  0  0  0  0  0  0  0
    5.5359    0.3960    0.0000 H   0  0  0  0  0  0  0  0  0  0  0  0
    5.3715    1.1760    0.0000 H   0  0  0  0  0  0  0  0  0  0  0  0
    2.8660    0.5528    0.0000 H   0  0  0  0  0  0  0  0  0  0  0  0
   11.0719   -1.3963    0.0000 H   0  0  0  0  0  0  0  0  0  0  0  0
    2.8660   -2.6872    0.0000 H   0  0  0  0  0  0  0  0  0  0  0  0
    1.4631   -0.2572    0.0000 H   0  0  0  0  0  0  0  0  0  0  0  0
    1.4631   -1.8772    0.0000 H   0  0  0  0  0  0  0  0  0  0  0  0
    5.2384    2.5107    0.0000 H   0  0  0  0  0  0  0  0  0  0  0  0
    3.1500    0.6368    0.0000 H   0  0  0  0  0  0  0  0  0  0  0  0
    9.4519   -4.2022    0.0000 H   0  0  0  0  0  0  0  0  0  0  0  0
   11.0719   -4.2022    0.0000 H   0  0  0  0  0  0  0  0  0  0  0  0
    4.1565    3.7165    0.0000 H   0  0  0  0  0  0  0  0  0  0  0  0
    2.0681    1.8426    0.0000 H   0  0  0  0  0  0  0  0  0  0  0  0
  1 32  1  0  0  0  0
  2 25  2  0  0  0  0
  3 12  1  0  0  0  0
  3 13  1  0  0  0  0
  3 14  1  0  0  0  0
  4  9  1  0  0  0  0
  4 15  1  0  0  0  0
  4 16  1  0  0  0  0
  5 14  1  0  0  0  0
  5 17  1  0  0  0  0
  5 18  1  0  0  0  0
  6 14  2  0  0  0  0
  6 19  1  0  0  0  0
  7 16  1  0  0  0  0
  7 25  1  0  0  0  0
  7 48  1  0  0  0  0
  8 16  2  0  0  0  0
  8 28  1  0  0  0  0
  9 10  1  0  0  0  0
  9 11  1  0  0  0  0
  9 33  1  0  0  0  0
 10 12  1  0  0  0  0
 10 34  1  0  0  0  0
 10 35  1  0  0  0  0
 11 13  1  0  0  0  0
 11 36  1  0  0  0  0
 11 37  1  0  0  0  0
 12 38  1  0  0  0  0
 12 39  1  0  0  0  0
 13 40  1  0  0  0  0
 13 41  1  0  0  0  0
 15 42  1  0  0  0  0
 15 43  1  0  0  0  0
 15 44  1  0  0  0  0
 17 19  1  0  0  0  0
 17 20  2  0  0  0  0
 18 21  1  0  0  0  0
 18 45  1  0  0  0  0
 18 46  1  0  0  0  0
 19 22  2  0  0  0  0
 20 23  1  0  0  0  0
 20 47  1  0  0  0  0
 21 26  2  0  0  0  0
 21 27  1  0  0  0  0
 22 24  1  0  0  0  0
 22 49  1  0  0  0  0
 23 24  2  0  0  0  0
 23 50  1  0  0  0  0
 24 51  1  0  0  0  0
 25 29  1  0  0  0  0
 26 30  1  0  0  0  0
 26 52  1  0  0  0  0
 27 31  2  0  0  0  0
 27 53  1  0  0  0  0
 28 29  2  0  0  0  0
 28 54  1  0  0  0  0
 29 55  1  0  0  0  0
 30 32  2  0  0  0  0
 30 56  1  0  0  0  0
 31 32  1  0  0  0  0
 31 57  1  0  0  0  0
M  END
> <PUBCHEM_COMPOUND_CID>
65906

> <PUBCHEM_COMPOUND_CANONICALIZED>
1

> <PUBCHEM_CACTVS_COMPLEXITY>
728

> <PUBCHEM_CACTVS_HBOND_ACCEPTOR>
5

> <PUBCHEM_CACTVS_HBOND_DONOR>
1

> <PUBCHEM_CACTVS_ROTATABLE_BOND>
5

> <PUBCHEM_CACTVS_SUBSKEYS>
AAADceB7oQAAAAAAAAAAAAAAAAAAAWAAAAA8YIEAAAAAAFgB9AAAHwAQAAAADCjBngwz0LfMEACoAyV2dACCgC0hEqAJ2CA4dNiIaKLA2ZGUIAhokQLIyOcQgAAOAAAAAAAAACAAAAAAAAAAQAAAAAAAAA==

> <PUBCHEM_IUPAC_OPENEYE_NAME>
2-[[1-[1-[(4-fluorophenyl)methyl]benzimidazol-2-yl]-4-piperidyl]-methyl-amino]-1H-pyrimidin-6-one

> <PUBCHEM_IUPAC_CAS_NAME>
2-[[1-[1-[(4-fluorophenyl)methyl]-2-benzimidazolyl]-4-piperidinyl]-methylamino]-1H-pyrimidin-6-one

> <PUBCHEM_IUPAC_NAME_MARKUP>
2-[[1-[1-[(4-fluorophenyl)methyl]benzimidazol-2-yl]piperidin-4-yl]-methylamino]-1<I>H</I>-pyrimidin-6-one

> <PUBCHEM_IUPAC_NAME>
2-[[1-[1-[(4-fluorophenyl)methyl]benzimidazol-2-yl]piperidin-4-yl]-methylamino]-1H-pyrimidin-6-one

> <PUBCHEM_IUPAC_SYSTEMATIC_NAME>
2-[[1-[1-[(4-fluorophenyl)methyl]benzimidazol-2-yl]piperidin-4-yl]-methyl-amino]-1H-pyrimidin-6-one

> <PUBCHEM_IUPAC_TRADITIONAL_NAME>
2-[[1-[1-(4-fluorobenzyl)benzimidazol-2-yl]-4-piperidyl]-methyl-amino]-1H-pyrimidin-6-one

> <PUBCHEM_IUPAC_INCHI>
InChI=1S/C24H25FN6O/c1-29(23-26-13-10-22(32)28-23)19-11-14-30(15-12-19)24-27-20-4-2-3-5-21(20)31(24)16-17-6-8-18(25)9-7-17/h2-10,13,19H,11-12,14-16H2,1H3,(H,26,28,32)

> <PUBCHEM_IUPAC_INCHIKEY>
PVLJETXTTWAYEW-UHFFFAOYSA-N

> <PUBCHEM_XLOGP3_AA>
3.2

> <PUBCHEM_EXACT_MASS>
432.20738760

> <PUBCHEM_MOLECULAR_FORMULA>
C24H25FN6O

> <PUBCHEM_MOLECULAR_WEIGHT>
432.5

> <PUBCHEM_SMILES>
CN(C1CCN(CC1)C2=NC3=CC=CC=C3N2CC4=CC=C(C=C4)F)C5=NC=CC(=O)N5

> <PUBCHEM_CONNECTIVITY_SMILES>
CN(C1CCN(CC1)C2=NC3=CC=CC=C3N2CC4=CC=C(C=C4)F)C5=NC=CC(=O)N5

> <PUBCHEM_CACTVS_TPSA>
65.8

> <PUBCHEM_MONOISOTOPIC_WEIGHT>
432.20738760

> <PUBCHEM_TOTAL_CHARGE>
0

> <PUBCHEM_HEAVY_ATOM_COUNT>
32

> <PUBCHEM_ATOM_DEF_STEREO_COUNT>
0

> <PUBCHEM_ATOM_UDEF_STEREO_COUNT>
0

> <PUBCHEM_BOND_DEF_STEREO_COUNT>
0

> <PUBCHEM_BOND_UDEF_STEREO_COUNT>
0

> <PUBCHEM_ISOTOPIC_ATOM_COUNT>
0

> <PUBCHEM_COMPONENT_COUNT>
1

> <PUBCHEM_CACTVS_TAUTO_COUNT>
-1

> <PUBCHEM_COORDINATE_TYPE>
1
5
255

> <PUBCHEM_BONDANNOTATIONS>
17  19  8
17  20  8
19  22  8
20  23  8
21  26  8
21  27  8
22  24  8
23  24  8
25  29  8
26  30  8
27  31  8
28  29  8
30  32  8
31  32  8
5  14  8
5  17  8
6  14  8
6  19  8
7  16  8
7  25  8
8  16  8
8  28  8

$$$$
3219
  -OEChem-08112611012D

 48 50  0     1  0  0  0  0  0999 V2000
    4.6318    1.4394    0.0000 O   0  0  0  0  0  0  0  0  0  0  0  0
    6.2619   -2.0107    0.0000 N   0  0  3  0  0  0  0  0  0  0  0  0
    8.4525   -2.5107    0.0000 N   0  0  3  0  0  0  0  0  0  0  0  0
    4.6783   -1.2060    0.0000 N   0  0  0  0  0  0  0  0  0  0  0  0
    4.6783   -2.8154    0.0000 N   0  0  0  0  0  0  0  0  0  0  0  0
    6.6958   -1.1097    0.0000 C   0  0  0  0  0  0  0  0  0  0  0  0
    6.6958   -2.9117    0.0000 C   0  0  0  0  0  0  0  0  0  0  0  0
    7.6707   -0.8872    0.0000 C   0  0  0  0  0  0  0  0  0  0  0  0
    7.6707   -3.1342    0.0000 C   0  0  0  0  0  0  0  0  0  0  0  0
    8.4525   -1.5107    0.0000 C   0  0  0  0  0  0  0  0  0  0  0  0
    5.2619   -2.0107    0.0000 C   0  0  0  0  0  0  0  0  0  0  0  0
    3.7321   -1.5107    0.0000 C   0  0  0  0  0  0  0  0  0  0  0  0
    4.9889   -0.2555    0.0000 C   0  0  0  0  0  0  0  0  0  0  0  0
    3.7321   -2.5107    0.0000 C   0  0  0  0  0  0  0  0  0  0  0  0
    9.3535   -2.9446    0.0000 C   0  0  0  0  0  0  0  0  0  0  0  0
    4.3211    0.4889    0.0000 C   0  0  0  0  0  0  0  0  0  0  0  0
    2.8660   -1.0107    0.0000 C   0  0  0  0  0  0  0  0  0  0  0  0
    2.8660   -3.0107    0.0000 C   0  0  0  0  0  0  0  0  0  0  0  0
    2.0000   -1.5107    0.0000 C   0  0  0  0  0  0  0  0  0  0  0  0
    2.0000   -2.5107    0.0000 C   0  0  0  0  0  0  0  0  0  0  0  0
    3.9639    2.1837    0.0000 C   0  0  0  0  0  0  0  0  0  0  0  0
    4.2746    3.1342    0.0000 C   0  0  0  0  0  0  0  0  0  0  0  0
    6.6958   -0.4897    0.0000 H   0  0  0  0  0  0  0  0  0  0  0  0
    6.0913   -0.9718    0.0000 H   0  0  0  0  0  0  0  0  0  0  0  0
    6.0913   -3.0496    0.0000 H   0  0  0  0  0  0  0  0  0  0  0  0
    6.6958   -3.5317    0.0000 H   0  0  0  0  0  0  0  0  0  0  0  0
    8.1554   -0.5007    0.0000 H   0  0  0  0  0  0  0  0  0  0  0  0
    7.4017   -0.3286    0.0000 H   0  0  0  0  0  0  0  0  0  0  0  0
    7.4017   -3.6928    0.0000 H   0  0  0  0  0  0  0  0  0  0  0  0
    8.1554   -3.5208    0.0000 H   0  0  0  0  0  0  0  0  0  0  0  0
    9.0570   -1.6487    0.0000 H   0  0  0  0  0  0  0  0  0  0  0  0
    8.7215   -0.9521    0.0000 H   0  0  0  0  0  0  0  0  0  0  0  0
    5.5359   -0.5475    0.0000 H   0  0  0  0  0  0  0  0  0  0  0  0
    5.3715    0.2325    0.0000 H   0  0  0  0  0  0  0  0  0  0  0  0
    9.0845   -3.5032    0.0000 H   0  0  0  0  0  0  0  0  0  0  0  0
    9.9121   -3.2136    0.0000 H   0  0  0  0  0  0  0  0  0  0  0  0
    9.6225   -2.3860    0.0000 H   0  0  0  0  0  0  0  0  0  0  0  0
    3.7742    0.7809    0.0000 H   0  0  0  0  0  0  0  0  0  0  0  0
    3.9385    0.0009    0.0000 H   0  0  0  0  0  0  0  0  0  0  0  0
    2.8660   -0.3907    0.0000 H   0  0  0  0  0  0  0  0  0  0  0  0
    2.8660   -3.6307    0.0000 H   0  0  0  0  0  0  0  0  0  0  0  0
    1.4631   -1.2007    0.0000 H   0  0  0  0  0  0  0  0  0  0  0  0
    1.4631   -2.8207    0.0000 H   0  0  0  0  0  0  0  0  0  0  0  0
    3.4170    2.4757    0.0000 H   0  0  0  0  0  0  0  0  0  0  0  0
    3.5814    1.6958    0.0000 H   0  0  0  0  0  0  0  0  0  0  0  0
    4.8639    2.9416    0.0000 H   0  0  0  0  0  0  0  0  0  0  0  0
    4.4672    3.7235    0.0000 H   0  0  0  0  0  0  0  0  0  0  0  0
    3.6853    3.3268    0.0000 H   0  0  0  0  0  0  0  0  0  0  0  0
  1 16  1  0  0  0  0
  1 21  1  0  0  0  0
  2  6  1  0  0  0  0
  2  7  1  0  0  0  0
  2 11  1  0  0  0  0
  3  9  1  0  0  0  0
  3 10  1  0  0  0  0
  3 15  1  0  0  0  0
  4 11  1  0  0  0  0
  4 12  1  0  0  0  0
  4 13  1  0  0  0  0
  5 11  2  0  0  0  0
  5 14  1  0  0  0  0
  6  8  1  0  0  0  0
  6 23  1  0  0  0  0
  6 24  1  0  0  0  0
  7  9  1  0  0  0  0
  7 25  1  0  0  0  0
  7 26  1  0  0  0  0
  8 10  1  0  0  0  0
  8 27  1  0  0  0  0
  8 28  1  0  0  0  0
  9 29  1  0  0  0  0
  9 30  1  0  0  0  0
 10 31  1  0  0  0  0
 10 32  1  0  0  0  0
 12 14  1  0  0  0  0
 12 17  2  0  0  0  0
 13 16  1  0  0  0  0
 13 33  1  0  0  0  0
 13 34  1  0  0  0  0
 14 18  2  0  0  0  0
 15 35  1  0  0  0  0
 15 36  1  0  0  0  0
 15 37  1  0  0  0  0
 16 38  1  0  0  0  0
 16 39  1  0  0  0  0
 17 19  1  0  0  0  0
 17 40  1  0  0  0  0
 18 20  1  0  0  0  0
 18 41  1  0  0  0  0
 19 20  2  0  0  0  0
 19 42  1  0  0  0  0
 20 43  1  0  0  0  0
 21 22  1  0  0  0  0
 21 44  1  0  0  0  0
 21 45  1  0  0  0  0
 22 46  1  0  0  0  0
 22 47  1  0  0  0  0
 22 48  1  0  0  0  0
M  END
> <PUBCHEM_COMPOUND_CID>
3219

> <PUBCHEM_COMPOUND_CANONICALIZED>
1

> <PUBCHEM_CACTVS_COMPLEXITY>
341

> <PUBCHEM_CACTVS_HBOND_ACCEPTOR>
4

> <PUBCHEM_CACTVS_HBOND_DONOR>
0

> <PUBCHEM_CACTVS_ROTATABLE_BOND>
5

> <PUBCHEM_CACTVS_SUBSKEYS>
AAADceB7oAAAAAAAAAAAAAAAAAAAAWAAAAAwAAAABYAAAFgB8AAAHgAAAAAACAjhlgYz0LcMFACgASRiZACCgC0hEqAJ2CA4dJiKaKLA2ZGXIAhogALYyCcQAAAAAAAAAAAAACAAAAAAAAAAQAAAAAAAAA==

> <PUBCHEM_IUPAC_OPENEYE_NAME>
1-(2-ethoxyethyl)-2-(4-methyl-1,4-diazepan-1-yl)benzimidazole

> <PUBCHEM_IUPAC_CAS_NAME>
1-(2-ethoxyethyl)-2-(4-methyl-1,4-diazepan-1-yl)benzimidazole

> <PUBCHEM_IUPAC_NAME_MARKUP>
1-(2-ethoxyethyl)-2-(4-methyl-1,4-diazepan-1-yl)benzimidazole

> <PUBCHEM_IUPAC_NAME>
1-(2-ethoxyethyl)-2-(4-methyl-1,4-diazepan-1-yl)benzimidazole

> <PUBCHEM_IUPAC_SYSTEMATIC_NAME>
1-(2-ethoxyethyl)-2-(4-methyl-1,4-diazepan-1-yl)benzimidazole

> <PUBCHEM_IUPAC_TRADITIONAL_NAME>
1-(2-ethoxyethyl)-2-(4-methyl-1,4-diazepan-1-yl)benzimidazole

> <PUBCHEM_IUPAC_INCHI>
InChI=1S/C17H26N4O/c1-3-22-14-13-21-16-8-5-4-7-15(16)18-17(21)20-10-6-9-19(2)11-12-20/h4-5,7-8H,3,6,9-14H2,1-2H3

> <PUBCHEM_IUPAC_INCHIKEY>
KBUZBQVCBVDWKX-UHFFFAOYSA-N

> <PUBCHEM_XLOGP3_AA>
2.2

> <PUBCHEM_EXACT_MASS>
302.21066147

> <PUBCHEM_MOLECULAR_FORMULA>
C17H26N4O

> <PUBCHEM_MOLECULAR_WEIGHT>
302.4

> <PUBCHEM_SMILES>
CCOCCN1C2=CC=CC=C2N=C1N3CCCN(CC3)C

> <PUBCHEM_CONNECTIVITY_SMILES>
CCOCCN1C2=CC=CC=C2N=C1N3CCCN(CC3)C

> <PUBCHEM_CACTVS_TPSA>
33.5

> <PUBCHEM_MONOISOTOPIC_WEIGHT>
302.21066147

> <PUBCHEM_TOTAL_CHARGE>
0

> <PUBCHEM_HEAVY_ATOM_COUNT>
22

> <PUBCHEM_ATOM_DEF_STEREO_COUNT>
0

> <PUBCHEM_ATOM_UDEF_STEREO_COUNT>
0

> <PUBCHEM_BOND_DEF_STEREO_COUNT>
0

> <PUBCHEM_BOND_UDEF_STEREO_COUNT>
0

> <PUBCHEM_ISOTOPIC_ATOM_COUNT>
0

> <PUBCHEM_COMPONENT_COUNT>
1

> <PUBCHEM_CACTVS_TAUTO_COUNT>
-1

> <PUBCHEM_COORDINATE_TYPE>
1
5
255

> <PUBCHEM_BONDANNOTATIONS>
12  14  8
12  17  8
14  18  8
17  19  8
18  20  8
19  20  8
4  11  8
4  12  8
5  11  8
5  14  8

$$$$
19371515
  -OEChem-08112611012D

 44 47  0     0  0  0  0  0  0999 V2000
    2.0000    2.8888    0.0000 O   0  0  0  0  0  0  0  0  0  0  0  0
    5.6280   -2.4475    0.0000 N   0  0  0  0  0  0  0  0  0  0  0  0
    4.5045    1.9613    0.0000 N   0  0  0  0  0  0  0  0  0  0  0  0
    3.8724    0.4788    0.0000 N   0  0  0  0  0  0  0  0  0  0  0  0
    5.6280   -0.4475    0.0000 C   0  0  0  0  0  0  0  0  0  0  0  0
    4.7620   -0.9475    0.0000 C   0  0  0  0  0  0  0  0  0  0  0  0
    6.4940   -0.9475    0.0000 C   0  0  0  0  0  0  0  0  0  0  0  0
    5.6280    0.5525    0.0000 C   0  0  0  0  0  0  0  0  0  0  0  0
    4.7620   -1.9475    0.0000 C   0  0  0  0  0  0  0  0  0  0  0  0
    6.4940   -1.9475    0.0000 C   0  0  0  0  0  0  0  0  0  0  0  0
    6.5290    0.9864    0.0000 C   0  0  0  0  0  0  0  0  0  0  0  0
    4.7271    0.9864    0.0000 C   0  0  0  0  0  0  0  0  0  0  0  0
    5.1280    2.7432    0.0000 C   0  0  0  0  0  0  0  0  0  0  0  0
    6.1280    2.7432    0.0000 C   0  0  0  0  0  0  0  0  0  0  0  0
    6.7515    1.9613    0.0000 C   0  0  0  0  0  0  0  0  0  0  0  0
    5.6280   -3.4475    0.0000 C   0  0  0  0  0  0  0  0  0  0  0  0
    3.5142    2.0479    0.0000 C   0  0  0  0  0  0  0  0  0  0  0  0
    7.2815    0.2662    0.0000 C   0  0  0  0  0  0  0  0  0  0  0  0
    7.7420    2.2837    0.0000 C   0  0  0  0  0  0  0  0  0  0  0  0
    3.1243    1.1335    0.0000 C   0  0  0  0  0  0  0  0  0  0  0  0
    8.2792    0.5656    0.0000 C   0  0  0  0  0  0  0  0  0  0  0  0
    8.5110    1.5811    0.0000 C   0  0  0  0  0  0  0  0  0  0  0  0
    2.9999    2.9055    0.0000 C   0  0  0  0  0  0  0  0  0  0  0  0
    4.5499   -0.3649    0.0000 H   0  0  0  0  0  0  0  0  0  0  0  0
    4.1514   -1.0551    0.0000 H   0  0  0  0  0  0  0  0  0  0  0  0
    7.1046   -1.0552    0.0000 H   0  0  0  0  0  0  0  0  0  0  0  0
    6.7061   -0.3649    0.0000 H   0  0  0  0  0  0  0  0  0  0  0  0
    4.1514   -1.8398    0.0000 H   0  0  0  0  0  0  0  0  0  0  0  0
    4.5499   -2.5301    0.0000 H   0  0  0  0  0  0  0  0  0  0  0  0
    6.7061   -2.5301    0.0000 H   0  0  0  0  0  0  0  0  0  0  0  0
    7.1046   -1.8398    0.0000 H   0  0  0  0  0  0  0  0  0  0  0  0
    5.2660    3.3476    0.0000 H   0  0  0  0  0  0  0  0  0  0  0  0
    4.5694    3.0122    0.0000 H   0  0  0  0  0  0  0  0  0  0  0  0
    6.6866    3.0122    0.0000 H   0  0  0  0  0  0  0  0  0  0  0  0
    5.9901    3.3476    0.0000 H   0  0  0  0  0  0  0  0  0  0  0  0
    5.0080   -3.4475    0.0000 H   0  0  0  0  0  0  0  0  0  0  0  0
    5.6280   -4.0675    0.0000 H   0  0  0  0  0  0  0  0  0  0  0  0
    6.2480   -3.4475    0.0000 H   0  0  0  0  0  0  0  0  0  0  0  0
    7.1366   -0.3366    0.0000 H   0  0  0  0  0  0  0  0  0  0  0  0
    7.8730    2.8897    0.0000 H   0  0  0  0  0  0  0  0  0  0  0  0
    2.5199    0.9955    0.0000 H   0  0  0  0  0  0  0  0  0  0  0  0
    8.7321    0.1421    0.0000 H   0  0  0  0  0  0  0  0  0  0  0  0
    9.1028    1.7661    0.0000 H   0  0  0  0  0  0  0  0  0  0  0  0
    3.3009    3.4475    0.0000 H   0  0  0  0  0  0  0  0  0  0  0  0
  1 23  2  0  0  0  0
  2  9  1  0  0  0  0
  2 10  1  0  0  0  0
  2 16  1  0  0  0  0
  3 12  1  0  0  0  0
  3 13  1  0  0  0  0
  3 17  1  0  0  0  0
  4 12  2  0  0  0  0
  4 20  1  0  0  0  0
  5  6  1  0  0  0  0
  5  7  1  0  0  0  0
  5  8  2  0  0  0  0
  6  9  1  0  0  0  0
  6 24  1  0  0  0  0
  6 25  1  0  0  0  0
  7 10  1  0  0  0  0
  7 26  1  0  0  0  0
  7 27  1  0  0  0  0
  8 11  1  0  0  0  0
  8 12  1  0  0  0  0
  9 28  1  0  0  0  0
  9 29  1  0  0  0  0
 10 30  1  0  0  0  0
 10 31  1  0  0  0  0
 11 15  1  0  0  0  0
 11 18  2  0  0  0  0
 13 14  1  0  0  0  0
 13 32  1  0  0  0  0
 13 33  1  0  0  0  0
 14 15  1  0  0  0  0
 14 34  1  0  0  0  0
 14 35  1  0  0  0  0
 15 19  2  0  0  0  0
 16 36  1  0  0  0  0
 16 37  1  0  0  0  0
 16 38  1  0  0  0  0
 17 20  2  0  0  0  0
 17 23  1  0  0  0  0
 18 21  1  0  0  0  0
 18 39  1  0  0  0  0
 19 22  1  0  0  0  0
 19 40  1  0  0  0  0
 20 41  1  0  0  0  0
 21 22  2  0  0  0  0
 21 42  1  0  0  0  0
 22 43  1  0  0  0  0
 23 44  1  0  0  0  0
M  END
> <PUBCHEM_COMPOUND_CID>
19371515

> <PUBCHEM_COMPOUND_CANONICALIZED>
1

> <PUBCHEM_CACTVS_COMPLEXITY>
479

> <PUBCHEM_CACTVS_HBOND_ACCEPTOR>
3

> <PUBCHEM_CACTVS_HBOND_DONOR>
0

> <PUBCHEM_CACTVS_ROTATABLE_BOND>
1

> <PUBCHEM_CACTVS_SUBSKEYS>
AAADceB7IAAAAAAAAAAAAAAAAAAAAWAAAAA8QAAABYAAAACxwAAAHgAAAAAADAjhnwY/kJcMEACoAz535ACCgC03EqAJ2AG4cNiIaCrAmTGUIIAogALIiOcQgIAOgAAAAAAQAAAAAAAAACAAAAAAAAAAAA==

> <PUBCHEM_IUPAC_OPENEYE_NAME>
11-(1-methyl-4-piperidylidene)-5,6-dihydroimidazo[2,1-b][3]benzazepine-3-carbaldehyde

> <PUBCHEM_IUPAC_CAS_NAME>
11-(1-methyl-4-piperidinylidene)-5,6-dihydroimidazo[2,1-b][3]benzazepine-3-carboxaldehyde

> <PUBCHEM_IUPAC_NAME_MARKUP>
11-(1-methylpiperidin-4-ylidene)-5,6-dihydroimidazo[2,1-b][3]benzazepine-3-carbaldehyde

> <PUBCHEM_IUPAC_NAME>
11-(1-methylpiperidin-4-ylidene)-5,6-dihydroimidazo[2,1-b][3]benzazepine-3-carbaldehyde

> <PUBCHEM_IUPAC_SYSTEMATIC_NAME>
11-(1-methylpiperidin-4-ylidene)-5,6-dihydroimidazo[2,1-b][3]benzazepine-3-carbaldehyde

> <PUBCHEM_IUPAC_TRADITIONAL_NAME>
11-(1-methyl-4-piperidylidene)-5,6-dihydroimidazo[2,1-b][3]benzazepine-3-carbaldehyde

> <PUBCHEM_IUPAC_INCHI>
InChI=1S/C19H21N3O/c1-21-9-6-15(7-10-21)18-17-5-3-2-4-14(17)8-11-22-16(13-23)12-20-19(18)22/h2-5,12-13H,6-11H2,1H3

> <PUBCHEM_IUPAC_INCHIKEY>
MWTBKTRZPHJQLH-UHFFFAOYSA-N

> <PUBCHEM_XLOGP3_AA>
1.7

> <PUBCHEM_EXACT_MASS>
307.168462302

> <PUBCHEM_MOLECULAR_FORMULA>
C19H21N3O

> <PUBCHEM_MOLECULAR_WEIGHT>
307.4

> <PUBCHEM_SMILES>
CN1CCC(=C2C3=CC=CC=C3CCN4C2=NC=C4C=O)CC1

> <PUBCHEM_CONNECTIVITY_SMILES>
CN1CCC(=C2C3=CC=CC=C3CCN4C2=NC=C4C=O)CC1

> <PUBCHEM_CACTVS_TPSA>
38.1

> <PUBCHEM_MONOISOTOPIC_WEIGHT>
307.168462302

> <PUBCHEM_TOTAL_CHARGE>
0

> <PUBCHEM_HEAVY_ATOM_COUNT>
23

> <PUBCHEM_ATOM_DEF_STEREO_COUNT>
0

> <PUBCHEM_ATOM_UDEF_STEREO_COUNT>
0

> <PUBCHEM_BOND_DEF_STEREO_COUNT>
0

> <PUBCHEM_BOND_UDEF_STEREO_COUNT>
0

> <PUBCHEM_ISOTOPIC_ATOM_COUNT>
0

> <PUBCHEM_COMPONENT_COUNT>
1

> <PUBCHEM_CACTVS_TAUTO_COUNT>
-1

> <PUBCHEM_COORDINATE_TYPE>
1
5
255

> <PUBCHEM_BONDANNOTATIONS>
11  15  8
11  18  8
15  19  8
17  20  8
18  21  8
19  22  8
21  22  8
3  12  8
3  17  8
4  12  8
4  20  8

$$$$
