2726
  -OEChem-08112611002D

 40 42  0     0  0  0  0  0  0999 V2000
    8.1962   -0.9585    0.0000 Cl  0  0  0  0  0  0  0  0  0  0  0  0
    4.6660   -2.9827    0.0000 S   0  0  0  0  0  0  0  0  0  0  0  0
    4.6660   -0.9827    0.0000 N   0  0  0  0  0  0  0  0  0  0  0  0
    2.9340    2.0173    0.0000 N   0  0  0  0  0  0  0  0  0  0  0  0
    4.6660    0.0173    0.0000 C   0  0  0  0  0  0  0  0  0  0  0  0
    3.8000    0.5173    0.0000 C   0  0  0  0  0  0  0  0  0  0  0  0
    3.8000    1.5173    0.0000 C   0  0  0  0  0  0  0  0  0  0  0  0
    5.5321   -1.4827    0.0000 C   0  0  0  0  0  0  0  0  0  0  0  0
    3.8000   -1.4827    0.0000 C   0  0  0  0  0  0  0  0  0  0  0  0
    5.5321   -2.4827    0.0000 C   0  0  0  0  0  0  0  0  0  0  0  0
    3.8000   -2.4827    0.0000 C   0  0  0  0  0  0  0  0  0  0  0  0
    6.4260   -0.9480    0.0000 C   0  0  0  0  0  0  0  0  0  0  0  0
    2.9061   -0.9480    0.0000 C   0  0  0  0  0  0  0  0  0  0  0  0
    6.4260   -3.0173    0.0000 C   0  0  0  0  0  0  0  0  0  0  0  0
    2.9061   -3.0173    0.0000 C   0  0  0  0  0  0  0  0  0  0  0  0
    2.9340    3.0173    0.0000 C   0  0  0  0  0  0  0  0  0  0  0  0
    2.0680    1.5173    0.0000 C   0  0  0  0  0  0  0  0  0  0  0  0
    7.3321   -1.4619    0.0000 C   0  0  0  0  0  0  0  0  0  0  0  0
    2.0000   -1.4619    0.0000 C   0  0  0  0  0  0  0  0  0  0  0  0
    7.3321   -2.5035    0.0000 C   0  0  0  0  0  0  0  0  0  0  0  0
    2.0000   -2.5035    0.0000 C   0  0  0  0  0  0  0  0  0  0  0  0
    5.2766   -0.0903    0.0000 H   0  0  0  0  0  0  0  0  0  0  0  0
    4.8781    0.5999    0.0000 H   0  0  0  0  0  0  0  0  0  0  0  0
    3.1894    0.6250    0.0000 H   0  0  0  0  0  0  0  0  0  0  0  0
    3.5880   -0.0653    0.0000 H   0  0  0  0  0  0  0  0  0  0  0  0
    4.4106    1.4097    0.0000 H   0  0  0  0  0  0  0  0  0  0  0  0
    4.0121    2.0999    0.0000 H   0  0  0  0  0  0  0  0  0  0  0  0
    6.4188   -0.3281    0.0000 H   0  0  0  0  0  0  0  0  0  0  0  0
    2.9132   -0.3281    0.0000 H   0  0  0  0  0  0  0  0  0  0  0  0
    6.4188   -3.6373    0.0000 H   0  0  0  0  0  0  0  0  0  0  0  0
    2.9132   -3.6373    0.0000 H   0  0  0  0  0  0  0  0  0  0  0  0
    3.5540    3.0173    0.0000 H   0  0  0  0  0  0  0  0  0  0  0  0
    2.9340    3.6373    0.0000 H   0  0  0  0  0  0  0  0  0  0  0  0
    2.3140    3.0173    0.0000 H   0  0  0  0  0  0  0  0  0  0  0  0
    1.7580    2.0543    0.0000 H   0  0  0  0  0  0  0  0  0  0  0  0
    1.5310    1.2073    0.0000 H   0  0  0  0  0  0  0  0  0  0  0  0
    2.3780    0.9804    0.0000 H   0  0  0  0  0  0  0  0  0  0  0  0
    1.4643   -1.1498    0.0000 H   0  0  0  0  0  0  0  0  0  0  0  0
    7.8678   -2.8156    0.0000 H   0  0  0  0  0  0  0  0  0  0  0  0
    1.4643   -2.8156    0.0000 H   0  0  0  0  0  0  0  0  0  0  0  0
  1 18  1  0  0  0  0
  2 10  1  0  0  0  0
  2 11  1  0  0  0  0
  3  5  1  0  0  0  0
  3  8  1  0  0  0  0
  3  9  1  0  0  0  0
  4  7  1  0  0  0  0
  4 16  1  0  0  0  0
  4 17  1  0  0  0  0
  5  6  1  0  0  0  0
  5 22  1  0  0  0  0
  5 23  1  0  0  0  0
  6  7  1  0  0  0  0
  6 24  1  0  0  0  0
  6 25  1  0  0  0  0
  7 26  1  0  0  0  0
  7 27  1  0  0  0  0
  8 10  2  0  0  0  0
  8 12  1  0  0  0  0
  9 11  1  0  0  0  0
  9 13  2  0  0  0  0
 10 14  1  0  0  0  0
 11 15  2  0  0  0  0
 12 18  2  0  0  0  0
 12 28  1  0  0  0  0
 13 19  1  0  0  0  0
 13 29  1  0  0  0  0
 14 20  2  0  0  0  0
 14 30  1  0  0  0  0
 15 21  1  0  0  0  0
 15 31  1  0  0  0  0
 16 32  1  0  0  0  0
 16 33  1  0  0  0  0
 16 34  1  0  0  0  0
 17 35  1  0  0  0  0
 17 36  1  0  0  0  0
 17 37  1  0  0  0  0
 18 20  1  0  0  0  0
 19 21  2  0  0  0  0
 19 38  1  0  0  0  0
 20 39  1  0  0  0  0
 21 40  1  0  0  0  0
M  END
> <PUBCHEM_COMPOUND_CID>
2726

> <PUBCHEM_COMPOUND_CANONICALIZED>
1

> <PUBCHEM_CACTVS_COMPLEXITY>
339

> <PUBCHEM_CACTVS_HBOND_ACCEPTOR>
3

> <PUBCHEM_CACTVS_HBOND_DONOR>
0

> <PUBCHEM_CACTVS_ROTATABLE_BOND>
4

> <PUBCHEM_CACTVS_SUBSKEYS>
AAADceB7AABEAAAAAAAAAAAAAAAAAAAAAAA8YIAAAAAAAACxQAAAHAYAAAAACArBUCQywYMAAAiAACRCQACCAAAhDxAIiBwIZogIIGLh05GEIAhggADoyAcQAAAAAAIAAAIAAQAABAAABAACAAAAAAAAAA==

> <PUBCHEM_IUPAC_OPENEYE_NAME>
3-(2-chlorophenothiazin-10-yl)-N,N-dimethyl-propan-1-amine

> <PUBCHEM_IUPAC_CAS_NAME>
3-(2-chloro-10-phenothiazinyl)-N,N-dimethyl-1-propanamine

> <PUBCHEM_IUPAC_NAME_MARKUP>
3-(2-chlorophenothiazin-10-yl)-<I>N</I>,<I>N</I>-dimethylpropan-1-amine

> <PUBCHEM_IUPAC_NAME>
3-(2-chlorophenothiazin-10-yl)-N,N-dimethylpropan-1-amine

> <PUBCHEM_IUPAC_SYSTEMATIC_NAME>
3-(2-chloranylphenothiazin-10-yl)-N,N-dimethyl-propan-1-amine

> <PUBCHEM_IUPAC_TRADITIONAL_NAME>
3-(2-chlorophenothiazin-10-yl)propyl-dimethyl-amine

> <PUBCHEM_IUPAC_INCHI>
InChI=1S/C17H19ClN2S/c1-19(2)10-5-11-20-14-6-3-4-7-16(14)21-17-9-8-13(18)12-15(17)20/h3-4,6-9,12H,5,10-11H2,1-2H3

> <PUBCHEM_IUPAC_INCHIKEY>
ZPEIMTDSQAKGNT-UHFFFAOYSA-N

> <PUBCHEM_XLOGP3>
5.2

> <PUBCHEM_EXACT_MASS>
318.0957475

> <PUBCHEM_MOLECULAR_FORMULA>
C17H19ClN2S

> <PUBCHEM_MOLECULAR_WEIGHT>
318.9

> <PUBCHEM_SMILES>
CN(C)CCCN1C2=CC=CC=C2SC3=C1C=C(C=C3)Cl

> <PUBCHEM_CONNECTIVITY_SMILES>
CN(C)CCCN1C2=CC=CC=C2SC3=C1C=C(C=C3)Cl

> <PUBCHEM_CACTVS_TPSA>
31.8

> <PUBCHEM_MONOISOTOPIC_WEIGHT>
318.0957475

> <PUBCHEM_TOTAL_CHARGE>
0

> <PUBCHEM_HEAVY_ATOM_COUNT>
21

> <PUBCHEM_ATOM_DEF_STEREO_COUNT>
0

> <PUBCHEM_ATOM_UDEF_STEREO_COUNT>
0

> <PUBCHEM_BOND_DEF_STEREO_COUNT>
0

> <PUBCHEM_BOND_UDEF_STEREO_COUNT>
0

> <PUBCHEM_ISOTOPIC_ATOM_COUNT>
0

> <PUBCHEM_COMPONENT_COUNT>
1

> <PUBCHEM_CACTVS_TAUTO_COUNT>
-1

> <PUBCHEM_COORDINATE_TYPE>
1
5
255

> <PUBCHEM_BONDANNOTATIONS>
10  14  8
11  15  8
12  18  8
13  19  8
14  20  8
15  21  8
18  20  8
19  21  8
8  10  8
8  12  8
9  11  8
9  13  8

$$$$
4927
  -OEChem-08112611002D

 40 42  0     1  0  0  0  0  0999 V2000
    4.6660   -2.4827    0.0000 S   0  0  0  0  0  0  0  0  0  0  0  0
    4.6660   -0.4827    0.0000 N   0  0  0  0  0  0  0  0  0  0  0  0
    5.5321    2.0173    0.0000 N   0  0  0  0  0  0  0  0  0  0  0  0
    5.5321    1.0173    0.0000 C   0  0  3  0  0  0  0  0  0  0  0  0
    4.6660    0.5173    0.0000 C   0  0  0  0  0  0  0  0  0  0  0  0
    5.5321   -0.9827    0.0000 C   0  0  0  0  0  0  0  0  0  0  0  0
    3.8000   -0.9827    0.0000 C   0  0  0  0  0  0  0  0  0  0  0  0
    6.3981    0.5173    0.0000 C   0  0  0  0  0  0  0  0  0  0  0  0
    5.5321   -1.9827    0.0000 C   0  0  0  0  0  0  0  0  0  0  0  0
    3.8000   -1.9827    0.0000 C   0  0  0  0  0  0  0  0  0  0  0  0
    6.3981    2.5173    0.0000 C   0  0  0  0  0  0  0  0  0  0  0  0
    4.6660    2.5173    0.0000 C   0  0  0  0  0  0  0  0  0  0  0  0
    6.4260   -0.4480    0.0000 C   0  0  0  0  0  0  0  0  0  0  0  0
    2.9061   -0.4480    0.0000 C   0  0  0  0  0  0  0  0  0  0  0  0
    6.4260   -2.5173    0.0000 C   0  0  0  0  0  0  0  0  0  0  0  0
    2.9061   -2.5173    0.0000 C   0  0  0  0  0  0  0  0  0  0  0  0
    7.3321   -0.9619    0.0000 C   0  0  0  0  0  0  0  0  0  0  0  0
    2.0000   -0.9619    0.0000 C   0  0  0  0  0  0  0  0  0  0  0  0
    7.3321   -2.0035    0.0000 C   0  0  0  0  0  0  0  0  0  0  0  0
    2.0000   -2.0035    0.0000 C   0  0  0  0  0  0  0  0  0  0  0  0
    6.0690    1.3273    0.0000 H   0  0  0  0  0  0  0  0  0  0  0  0
    4.4540    1.0999    0.0000 H   0  0  0  0  0  0  0  0  0  0  0  0
    4.0555    0.4097    0.0000 H   0  0  0  0  0  0  0  0  0  0  0  0
    6.0881   -0.0196    0.0000 H   0  0  0  0  0  0  0  0  0  0  0  0
    6.9350    0.2073    0.0000 H   0  0  0  0  0  0  0  0  0  0  0  0
    6.7081    1.0543    0.0000 H   0  0  0  0  0  0  0  0  0  0  0  0
    6.7081    1.9804    0.0000 H   0  0  0  0  0  0  0  0  0  0  0  0
    6.9350    2.8273    0.0000 H   0  0  0  0  0  0  0  0  0  0  0  0
    6.0881    3.0543    0.0000 H   0  0  0  0  0  0  0  0  0  0  0  0
    4.9760    3.0543    0.0000 H   0  0  0  0  0  0  0  0  0  0  0  0
    4.1291    2.8273    0.0000 H   0  0  0  0  0  0  0  0  0  0  0  0
    4.3560    1.9804    0.0000 H   0  0  0  0  0  0  0  0  0  0  0  0
    6.4188    0.1720    0.0000 H   0  0  0  0  0  0  0  0  0  0  0  0
    2.9132    0.1720    0.0000 H   0  0  0  0  0  0  0  0  0  0  0  0
    6.4188   -3.1373    0.0000 H   0  0  0  0  0  0  0  0  0  0  0  0
    2.9132   -3.1373    0.0000 H   0  0  0  0  0  0  0  0  0  0  0  0
    7.8678   -0.6498    0.0000 H   0  0  0  0  0  0  0  0  0  0  0  0
    1.4643   -0.6498    0.0000 H   0  0  0  0  0  0  0  0  0  0  0  0
    7.8678   -2.3156    0.0000 H   0  0  0  0  0  0  0  0  0  0  0  0
    1.4643   -2.3156    0.0000 H   0  0  0  0  0  0  0  0  0  0  0  0
  1  9  1  0  0  0  0
  1 10  1  0  0  0  0
  2  5  1  0  0  0  0
  2  6  1  0  0  0  0
  2  7  1  0  0  0  0
  3  4  1  0  0  0  0
  3 11  1  0  0  0  0
  3 12  1  0  0  0  0
  4  5  1  0  0  0  0
  4  8  1  0  0  0  0
  4 21  1  0  0  0  0
  5 22  1  0  0  0  0
  5 23  1  0  0  0  0
  6  9  1  0  0  0  0
  6 13  2  0  0  0  0
  7 10  1  0  0  0  0
  7 14  2  0  0  0  0
  8 24  1  0  0  0  0
  8 25  1  0  0  0  0
  8 26  1  0  0  0  0
  9 15  2  0  0  0  0
 10 16  2  0  0  0  0
 11 27  1  0  0  0  0
 11 28  1  0  0  0  0
 11 29  1  0  0  0  0
 12 30  1  0  0  0  0
 12 31  1  0  0  0  0
 12 32  1  0  0  0  0
 13 17  1  0  0  0  0
 13 33  1  0  0  0  0
 14 18  1  0  0  0  0
 14 34  1  0  0  0  0
 15 19  1  0  0  0  0
 15 35  1  0  0  0  0
 16 20  1  0  0  0  0
 16 36  1  0  0  0  0
 17 19  2  0  0  0  0
 17 37  1  0  0  0  0
 18 20  2  0  0  0  0
 18 38  1  0  0  0  0
 19 39  1  0  0  0  0
 20 40  1  0  0  0  0
M  END
> <PUBCHEM_COMPOUND_CID>
4927

> <PUBCHEM_COMPOUND_CANONICALIZED>
1

> <PUBCHEM_CACTVS_COMPLEXITY>
298

> <PUBCHEM_CACTVS_HBOND_ACCEPTOR>
3

> <PUBCHEM_CACTVS_HBOND_DONOR>
0

> <PUBCHEM_CACTVS_ROTATABLE_BOND>
3

> <PUBCHEM_CACTVS_SUBSKEYS>
AAADceB7AABAAAAAAAAAAAAAAAAAAAAAAAA8YIAAAAAAAACxQAAAHAQAAAAACCjBUAQywYMAAAiAACRCQACCAAAhChAIiBwIZIgIYGLgkZGUIAhggADoyAcQAAAAAAAAAAAAAQAAAAAAAAACAAAAAAAAAA==

> <PUBCHEM_IUPAC_OPENEYE_NAME>
N,N-dimethyl-1-phenothiazin-10-yl-propan-2-amine

> <PUBCHEM_IUPAC_CAS_NAME>
N,N-dimethyl-1-(10-phenothiazinyl)-2-propanamine

> <PUBCHEM_IUPAC_NAME_MARKUP>
<I>N</I>,<I>N</I>-dimethyl-1-phenothiazin-10-ylpropan-2-amine

> <PUBCHEM_IUPAC_NAME>
N,N-dimethyl-1-phenothiazin-10-ylpropan-2-amine

> <PUBCHEM_IUPAC_SYSTEMATIC_NAME>
N,N-dimethyl-1-phenothiazin-10-yl-propan-2-amine

> <PUBCHEM_IUPAC_TRADITIONAL_NAME>
dimethyl-(1-methyl-2-phenothiazin-10-yl-ethyl)amine

> <PUBCHEM_IUPAC_INCHI>
InChI=1S/C17H20N2S/c1-13(18(2)3)12-19-14-8-4-6-10-16(14)20-17-11-7-5-9-15(17)19/h4-11,13H,12H2,1-3H3

> <PUBCHEM_IUPAC_INCHIKEY>
PWWVAXIEGOYWEE-UHFFFAOYSA-N

> <PUBCHEM_XLOGP3>
4.8

> <PUBCHEM_EXACT_MASS>
284.13471982

> <PUBCHEM_MOLECULAR_FORMULA>
C17H20N2S

> <PUBCHEM_MOLECULAR_WEIGHT>
284.4

> <PUBCHEM_SMILES>
CC(CN1C2=CC=CC=C2SC3=CC=CC=C31)N(C)C

> <PUBCHEM_CONNECTIVITY_SMILES>
CC(CN1C2=CC=CC=C2SC3=CC=CC=C31)N(C)C

> <PUBCHEM_CACTVS_TPSA>
31.8

> <PUBCHEM_MONOISOTOPIC_WEIGHT>
284.13471982

> <PUBCHEM_TOTAL_CHARGE>
0

> <PUBCHEM_HEAVY_ATOM_COUNT>
20

> <PUBCHEM_ATOM_DEF_STEREO_COUNT>
0

> <PUBCHEM_ATOM_UDEF_STEREO_COUNT>
1

> <PUBCHEM_BOND_DEF_STEREO_COUNT>
0

> <PUBCHEM_BOND_UDEF_STEREO_COUNT>
0

> <PUBCHEM_ISOTOPIC_ATOM_COUNT>
0

> <PUBCHEM_COMPONENT_COUNT>
1

> <PUBCHEM_CACTVS_TAUTO_COUNT>
-1

> <PUBCHEM_COORDINATE_TYPE>
1
5
255

> <PUBCHEM_BONDANNOTATIONS>
10  16  8
13  17  8
14  18  8
15  19  8
16  20  8
17  19  8
18  20  8
4  8  3
6  13  8
6  9  8
7  10  8
7  14  8
9  15  8

$$$$
3372
  -OEChem-08112611002D

 56 59  0     0  0  0  0  0  0999 V2000
    7.1962   -4.2927    0.0000 S   0  0  0  0  0  0  0  0  0  0  0  0
   11.5904   -1.7652    0.0000 F   0  0  0  0  0  0  0  0  0  0  0  0
   11.2296   -3.1326    0.0000 F   0  0  0  0  0  0  0  0  0  0  0  0
   10.2229   -1.4044    0.0000 F   0  0  0  0  0  0  0  0  0  0  0  0
    2.0000    3.7073    0.0000 O   0  0  0  0  0  0  0  0  0  0  0  0
    5.4641    0.7073    0.0000 N   0  0  0  0  0  0  0  0  0  0  0  0
    3.7321    1.7073    0.0000 N   0  0  0  0  0  0  0  0  0  0  0  0
    7.1962   -2.2927    0.0000 N   0  0  0  0  0  0  0  0  0  0  0  0
    4.5981    0.2073    0.0000 C   0  0  0  0  0  0  0  0  0  0  0  0
    5.4641    1.7073    0.0000 C   0  0  0  0  0  0  0  0  0  0  0  0
    3.7321    0.7073    0.0000 C   0  0  0  0  0  0  0  0  0  0  0  0
    4.5981    2.2073    0.0000 C   0  0  0  0  0  0  0  0  0  0  0  0
    6.3301    0.2073    0.0000 C   0  0  0  0  0  0  0  0  0  0  0  0
    6.3301   -0.7927    0.0000 C   0  0  0  0  0  0  0  0  0  0  0  0
    2.8660    2.2073    0.0000 C   0  0  0  0  0  0  0  0  0  0  0  0
    7.1962   -1.2927    0.0000 C   0  0  0  0  0  0  0  0  0  0  0  0
    2.8660    3.2073    0.0000 C   0  0  0  0  0  0  0  0  0  0  0  0
    8.0622   -2.7927    0.0000 C   0  0  0  0  0  0  0  0  0  0  0  0
    6.3301   -2.7927    0.0000 C   0  0  0  0  0  0  0  0  0  0  0  0
    8.0622   -3.7927    0.0000 C   0  0  0  0  0  0  0  0  0  0  0  0
    6.3301   -3.7927    0.0000 C   0  0  0  0  0  0  0  0  0  0  0  0
    8.9561   -2.2580    0.0000 C   0  0  0  0  0  0  0  0  0  0  0  0
    5.4362   -2.2580    0.0000 C   0  0  0  0  0  0  0  0  0  0  0  0
    9.8622   -2.7719    0.0000 C   0  0  0  0  0  0  0  0  0  0  0  0
    8.9561   -4.3273    0.0000 C   0  0  0  0  0  0  0  0  0  0  0  0
    5.4362   -4.3273    0.0000 C   0  0  0  0  0  0  0  0  0  0  0  0
    9.8622   -3.8135    0.0000 C   0  0  0  0  0  0  0  0  0  0  0  0
    4.5301   -2.7719    0.0000 C   0  0  0  0  0  0  0  0  0  0  0  0
    4.5301   -3.8135    0.0000 C   0  0  0  0  0  0  0  0  0  0  0  0
   10.7263   -2.2685    0.0000 C   0  0  0  0  0  0  0  0  0  0  0  0
    4.1996   -0.2676    0.0000 H   0  0  0  0  0  0  0  0  0  0  0  0
    4.9966   -0.2676    0.0000 H   0  0  0  0  0  0  0  0  0  0  0  0
    6.0747    1.5997    0.0000 H   0  0  0  0  0  0  0  0  0  0  0  0
    5.6762    2.2899    0.0000 H   0  0  0  0  0  0  0  0  0  0  0  0
    3.1215    0.8150    0.0000 H   0  0  0  0  0  0  0  0  0  0  0  0
    3.5200    0.1247    0.0000 H   0  0  0  0  0  0  0  0  0  0  0  0
    4.9966    2.6823    0.0000 H   0  0  0  0  0  0  0  0  0  0  0  0
    4.1996    2.6823    0.0000 H   0  0  0  0  0  0  0  0  0  0  0  0
    6.9407    0.0997    0.0000 H   0  0  0  0  0  0  0  0  0  0  0  0
    6.5422    0.7899    0.0000 H   0  0  0  0  0  0  0  0  0  0  0  0
    5.7196   -0.6850    0.0000 H   0  0  0  0  0  0  0  0  0  0  0  0
    6.1181   -1.3753    0.0000 H   0  0  0  0  0  0  0  0  0  0  0  0
    2.2554    2.3150    0.0000 H   0  0  0  0  0  0  0  0  0  0  0  0
    2.6540    1.6247    0.0000 H   0  0  0  0  0  0  0  0  0  0  0  0
    7.8067   -1.4003    0.0000 H   0  0  0  0  0  0  0  0  0  0  0  0
    7.4082   -0.7101    0.0000 H   0  0  0  0  0  0  0  0  0  0  0  0
    3.4766    3.0997    0.0000 H   0  0  0  0  0  0  0  0  0  0  0  0
    3.0781    3.7899    0.0000 H   0  0  0  0  0  0  0  0  0  0  0  0
    8.9490   -1.6381    0.0000 H   0  0  0  0  0  0  0  0  0  0  0  0
    5.4434   -1.6381    0.0000 H   0  0  0  0  0  0  0  0  0  0  0  0
    8.9490   -4.9473    0.0000 H   0  0  0  0  0  0  0  0  0  0  0  0
    5.4434   -4.9473    0.0000 H   0  0  0  0  0  0  0  0  0  0  0  0
   10.3979   -4.1256    0.0000 H   0  0  0  0  0  0  0  0  0  0  0  0
    2.0000    4.3273    0.0000 H   0  0  0  0  0  0  0  0  0  0  0  0
    3.9944   -2.4598    0.0000 H   0  0  0  0  0  0  0  0  0  0  0  0
    3.9944   -4.1256    0.0000 H   0  0  0  0  0  0  0  0  0  0  0  0
  1 20  1  0  0  0  0
  1 21  1  0  0  0  0
  2 30  1  0  0  0  0
  3 30  1  0  0  0  0
  4 30  1  0  0  0  0
  5 17  1  0  0  0  0
  5 54  1  0  0  0  0
  6  9  1  0  0  0  0
  6 10  1  0  0  0  0
  6 13  1  0  0  0  0
  7 11  1  0  0  0  0
  7 12  1  0  0  0  0
  7 15  1  0  0  0  0
  8 16  1  0  0  0  0
  8 18  1  0  0  0  0
  8 19  1  0  0  0  0
  9 11  1  0  0  0  0
  9 31  1  0  0  0  0
  9 32  1  0  0  0  0
 10 12  1  0  0  0  0
 10 33  1  0  0  0  0
 10 34  1  0  0  0  0
 11 35  1  0  0  0  0
 11 36  1  0  0  0  0
 12 37  1  0  0  0  0
 12 38  1  0  0  0  0
 13 14  1  0  0  0  0
 13 39  1  0  0  0  0
 13 40  1  0  0  0  0
 14 16  1  0  0  0  0
 14 41  1  0  0  0  0
 14 42  1  0  0  0  0
 15 17  1  0  0  0  0
 15 43  1  0  0  0  0
 15 44  1  0  0  0  0
 16 45  1  0  0  0  0
 16 46  1  0  0  0  0
 17 47  1  0  0  0  0
 17 48  1  0  0  0  0
 18 20  2  0  0  0  0
 18 22  1  0  0  0  0
 19 21  1  0  0  0  0
 19 23  2  0  0  0  0
 20 25  1  0  0  0  0
 21 26  2  0  0  0  0
 22 24  2  0  0  0  0
 22 49  1  0  0  0  0
 23 28  1  0  0  0  0
 23 50  1  0  0  0  0
 24 27  1  0  0  0  0
 24 30  1  0  0  0  0
 25 27  2  0  0  0  0
 25 51  1  0  0  0  0
 26 29  1  0  0  0  0
 26 52  1  0  0  0  0
 27 53  1  0  0  0  0
 28 29  2  0  0  0  0
 28 55  1  0  0  0  0
 29 56  1  0  0  0  0
M  END
> <PUBCHEM_COMPOUND_CID>
3372

> <PUBCHEM_COMPOUND_CANONICALIZED>
1

> <PUBCHEM_CACTVS_COMPLEXITY>
544

> <PUBCHEM_CACTVS_HBOND_ACCEPTOR>
8

> <PUBCHEM_CACTVS_HBOND_DONOR>
1

> <PUBCHEM_CACTVS_ROTATABLE_BOND>
6

> <PUBCHEM_CACTVS_SUBSKEYS>
AAADceB7IYBAAAAAAAAAAAAAAAAAAAAAAAA8eIEAAAAAAACxQAAAHwQACAAADAjh2BYwwYMAAgiAAiRCQACCAAAhChAIiBwIZIgKcGLg0ZGUIAhggAD4yAcQgAAOEAAAQAAAAQAgAACAAAACAAAAAAAAAA==

> <PUBCHEM_IUPAC_OPENEYE_NAME>
2-[4-[3-[2-(trifluoromethyl)phenothiazin-10-yl]propyl]piperazin-1-yl]ethanol

> <PUBCHEM_IUPAC_CAS_NAME>
2-[4-[3-[2-(trifluoromethyl)-10-phenothiazinyl]propyl]-1-piperazinyl]ethanol

> <PUBCHEM_IUPAC_NAME_MARKUP>
2-[4-[3-[2-(trifluoromethyl)phenothiazin-10-yl]propyl]piperazin-1-yl]ethanol

> <PUBCHEM_IUPAC_NAME>
2-[4-[3-[2-(trifluoromethyl)phenothiazin-10-yl]propyl]piperazin-1-yl]ethanol

> <PUBCHEM_IUPAC_SYSTEMATIC_NAME>
2-[4-[3-[2-(trifluoromethyl)phenothiazin-10-yl]propyl]piperazin-1-yl]ethanol

> <PUBCHEM_IUPAC_TRADITIONAL_NAME>
2-[4-[3-[2-(trifluoromethyl)phenothiazin-10-yl]propyl]piperazino]ethanol

> <PUBCHEM_IUPAC_INCHI>
InChI=1S/C22H26F3N3OS/c23-22(24,25)17-6-7-21-19(16-17)28(18-4-1-2-5-20(18)30-21)9-3-8-26-10-12-27(13-11-26)14-15-29/h1-2,4-7,16,29H,3,8-15H2

> <PUBCHEM_IUPAC_INCHIKEY>
PLDUPXSUYLZYBN-UHFFFAOYSA-N

> <PUBCHEM_XLOGP3>
4.4

> <PUBCHEM_EXACT_MASS>
437.17486812

> <PUBCHEM_MOLECULAR_FORMULA>
C22H26F3N3OS

> <PUBCHEM_MOLECULAR_WEIGHT>
437.5

> <PUBCHEM_SMILES>
C1CN(CCN1CCCN2C3=CC=CC=C3SC4=C2C=C(C=C4)C(F)(F)F)CCO

> <PUBCHEM_CONNECTIVITY_SMILES>
C1CN(CCN1CCCN2C3=CC=CC=C3SC4=C2C=C(C=C4)C(F)(F)F)CCO

> <PUBCHEM_CACTVS_TPSA>
55.3

> <PUBCHEM_MONOISOTOPIC_WEIGHT>
437.17486812

> <PUBCHEM_TOTAL_CHARGE>
0

> <PUBCHEM_HEAVY_ATOM_COUNT>
30

> <PUBCHEM_ATOM_DEF_STEREO_COUNT>
0

> <PUBCHEM_ATOM_UDEF_STEREO_COUNT>
0

> <PUBCHEM_BOND_DEF_STEREO_COUNT>
0

> <PUBCHEM_BOND_UDEF_STEREO_COUNT>
0

> <PUBCHEM_ISOTOPIC_ATOM_COUNT>
0

> <PUBCHEM_COMPONENT_COUNT>
1

> <PUBCHEM_CACTVS_TAUTO_COUNT>
-1

> <PUBCHEM_COORDINATE_TYPE>
1
5
255

> <PUBCHEM_BONDANNOTATIONS>
18  20  8
18  22  8
19  21  8
19  23  8
20  25  8
21  26  8
22  24  8
23  28  8
24  27  8
25  27  8
26  29  8
28  29  8

$$$$
4748
  -OEChem-08112611002D

 53 56  0     0  0  0  0  0  0999 V2000
   10.7263   -2.2685    0.0000 Cl  0  0  0  0  0  0  0  0  0  0  0  0
    7.1962   -4.2927    0.0000 S   0  0  0  0  0  0  0  0  0  0  0  0
    2.0000    3.7073    0.0000 O   0  0  0  0  0  0  0  0  0  0  0  0
    5.4641    0.7073    0.0000 N   0  0  0  0  0  0  0  0  0  0  0  0
    3.7321    1.7073    0.0000 N   0  0  0  0  0  0  0  0  0  0  0  0
    7.1962   -2.2927    0.0000 N   0  0  0  0  0  0  0  0  0  0  0  0
    4.5981    0.2073    0.0000 C   0  0  0  0  0  0  0  0  0  0  0  0
    5.4641    1.7073    0.0000 C   0  0  0  0  0  0  0  0  0  0  0  0
    3.7321    0.7073    0.0000 C   0  0  0  0  0  0  0  0  0  0  0  0
    4.5981    2.2073    0.0000 C   0  0  0  0  0  0  0  0  0  0  0  0
    6.3301    0.2073    0.0000 C   0  0  0  0  0  0  0  0  0  0  0  0
    6.3301   -0.7927    0.0000 C   0  0  0  0  0  0  0  0  0  0  0  0
    2.8660    2.2073    0.0000 C   0  0  0  0  0  0  0  0  0  0  0  0
    7.1962   -1.2927    0.0000 C   0  0  0  0  0  0  0  0  0  0  0  0
    2.8660    3.2073    0.0000 C   0  0  0  0  0  0  0  0  0  0  0  0
    8.0622   -2.7927    0.0000 C   0  0  0  0  0  0  0  0  0  0  0  0
    6.3301   -2.7927    0.0000 C   0  0  0  0  0  0  0  0  0  0  0  0
    8.0622   -3.7927    0.0000 C   0  0  0  0  0  0  0  0  0  0  0  0
    6.3301   -3.7927    0.0000 C   0  0  0  0  0  0  0  0  0  0  0  0
    8.9561   -2.2580    0.0000 C   0  0  0  0  0  0  0  0  0  0  0  0
    5.4362   -2.2580    0.0000 C   0  0  0  0  0  0  0  0  0  0  0  0
    8.9561   -4.3273    0.0000 C   0  0  0  0  0  0  0  0  0  0  0  0
    5.4362   -4.3273    0.0000 C   0  0  0  0  0  0  0  0  0  0  0  0
    9.8622   -2.7719    0.0000 C   0  0  0  0  0  0  0  0  0  0  0  0
    4.5301   -2.7719    0.0000 C   0  0  0  0  0  0  0  0  0  0  0  0
    9.8622   -3.8135    0.0000 C   0  0  0  0  0  0  0  0  0  0  0  0
    4.5301   -3.8135    0.0000 C   0  0  0  0  0  0  0  0  0  0  0  0
    4.1996   -0.2676    0.0000 H   0  0  0  0  0  0  0  0  0  0  0  0
    4.9966   -0.2676    0.0000 H   0  0  0  0  0  0  0  0  0  0  0  0
    6.0747    1.5997    0.0000 H   0  0  0  0  0  0  0  0  0  0  0  0
    5.6762    2.2899    0.0000 H   0  0  0  0  0  0  0  0  0  0  0  0
    3.1215    0.8150    0.0000 H   0  0  0  0  0  0  0  0  0  0  0  0
    3.5200    0.1247    0.0000 H   0  0  0  0  0  0  0  0  0  0  0  0
    4.9966    2.6823    0.0000 H   0  0  0  0  0  0  0  0  0  0  0  0
    4.1996    2.6823    0.0000 H   0  0  0  0  0  0  0  0  0  0  0  0
    6.9407    0.0997    0.0000 H   0  0  0  0  0  0  0  0  0  0  0  0
    6.5422    0.7899    0.0000 H   0  0  0  0  0  0  0  0  0  0  0  0
    5.7196   -0.6850    0.0000 H   0  0  0  0  0  0  0  0  0  0  0  0
    6.1181   -1.3753    0.0000 H   0  0  0  0  0  0  0  0  0  0  0  0
    2.2554    2.3150    0.0000 H   0  0  0  0  0  0  0  0  0  0  0  0
    2.6540    1.6247    0.0000 H   0  0  0  0  0  0  0  0  0  0  0  0
    7.8067   -1.4003    0.0000 H   0  0  0  0  0  0  0  0  0  0  0  0
    7.4082   -0.7101    0.0000 H   0  0  0  0  0  0  0  0  0  0  0  0
    3.4766    3.0997    0.0000 H   0  0  0  0  0  0  0  0  0  0  0  0
    3.0781    3.7899    0.0000 H   0  0  0  0  0  0  0  0  0  0  0  0
    8.9490   -1.6381    0.0000 H   0  0  0  0  0  0  0  0  0  0  0  0
    5.4434   -1.6381    0.0000 H   0  0  0  0  0  0  0  0  0  0  0  0
    8.9490   -4.9473    0.0000 H   0  0  0  0  0  0  0  0  0  0  0  0
    5.4434   -4.9473    0.0000 H   0  0  0  0  0  0  0  0  0  0  0  0
    2.0000    4.3273    0.0000 H   0  0  0  0  0  0  0  0  0  0  0  0
    3.9944   -2.4598    0.0000 H   0  0  0  0  0  0  0  0  0  0  0  0
   10.3979   -4.1256    0.0000 H   0  0  0  0  0  0  0  0  0  0  0  0
    3.9944   -4.1256    0.0000 H   0  0  0  0  0  0  0  0  0  0  0  0
  1 24  1  0  0  0  0
  2 18  1  0  0  0  0
  2 19  1  0  0  0  0
  3 15  1  0  0  0  0
  3 50  1  0  0  0  0
  4  7  1  0  0  0  0
  4  8  1  0  0  0  0
  4 11  1  0  0  0  0
  5  9  1  0  0  0  0
  5 10  1  0  0  0  0
  5 13  1  0  0  0  0
  6 14  1  0  0  0  0
  6 16  1  0  0  0  0
  6 17  1  0  0  0  0
  7  9  1  0  0  0  0
  7 28  1  0  0  0  0
  7 29  1  0  0  0  0
  8 10  1  0  0  0  0
  8 30  1  0  0  0  0
  8 31  1  0  0  0  0
  9 32  1  0  0  0  0
  9 33  1  0  0  0  0
 10 34  1  0  0  0  0
 10 35  1  0  0  0  0
 11 12  1  0  0  0  0
 11 36  1  0  0  0  0
 11 37  1  0  0  0  0
 12 14  1  0  0  0  0
 12 38  1  0  0  0  0
 12 39  1  0  0  0  0
 13 15  1  0  0  0  0
 13 40  1  0  0  0  0
 13 41  1  0  0  0  0
 14 42  1  0  0  0  0
 14 43  1  0  0  0  0
 15 44  1  0  0  0  0
 15 45  1  0  0  0  0
 16 18  2  0  0  0  0
 16 20  1  0  0  0  0
 17 19  1  0  0  0  0
 17 21  2  0  0  0  0
 18 22  1  0  0  0  0
 19 23  2  0  0  0  0
 20 24  2  0  0  0  0
 20 46  1  0  0  0  0
 21 25  1  0  0  0  0
 21 47  1  0  0  0  0
 22 26  2  0  0  0  0
 22 48  1  0  0  0  0
 23 27  1  0  0  0  0
 23 49  1  0  0  0  0
 24 26  1  0  0  0  0
 25 27  2  0  0  0  0
 25 51  1  0  0  0  0
 26 52  1  0  0  0  0
 27 53  1  0  0  0  0
M  END
> <PUBCHEM_COMPOUND_CID>
4748

> <PUBCHEM_COMPOUND_CANONICALIZED>
1

> <PUBCHEM_CACTVS_COMPLEXITY>
463

> <PUBCHEM_CACTVS_HBOND_ACCEPTOR>
5

> <PUBCHEM_CACTVS_HBOND_DONOR>
1

> <PUBCHEM_CACTVS_ROTATABLE_BOND>
6

> <PUBCHEM_CACTVS_SUBSKEYS>
AAADceB7IABEAAAAAAAAAAAAAAAAAAAAAAA8eIEAAAAAAACxQAAAHgYACAAACArh0CYwwYMAAgiAACRCQACCAAAhDxAIiBwIZogKcGLh05GUIAhggAD4yAcQAAAAAAIAAAIAAQAABAAABAACAAAAAAAAAA==

> <PUBCHEM_IUPAC_OPENEYE_NAME>
2-[4-[3-(2-chlorophenothiazin-10-yl)propyl]piperazin-1-yl]ethanol

> <PUBCHEM_IUPAC_CAS_NAME>
2-[4-[3-(2-chloro-10-phenothiazinyl)propyl]-1-piperazinyl]ethanol

> <PUBCHEM_IUPAC_NAME_MARKUP>
2-[4-[3-(2-chlorophenothiazin-10-yl)propyl]piperazin-1-yl]ethanol

> <PUBCHEM_IUPAC_NAME>
2-[4-[3-(2-chlorophenothiazin-10-yl)propyl]piperazin-1-yl]ethanol

> <PUBCHEM_IUPAC_SYSTEMATIC_NAME>
2-[4-[3-(2-chloranylphenothiazin-10-yl)propyl]piperazin-1-yl]ethanol

> <PUBCHEM_IUPAC_TRADITIONAL_NAME>
2-[4-[3-(2-chlorophenothiazin-10-yl)propyl]piperazino]ethanol

> <PUBCHEM_IUPAC_INCHI>
InChI=1S/C21H26ClN3OS/c22-17-6-7-21-19(16-17)25(18-4-1-2-5-20(18)27-21)9-3-8-23-10-12-24(13-11-23)14-15-26/h1-2,4-7,16,26H,3,8-15H2

> <PUBCHEM_IUPAC_INCHIKEY>
RGCVKNLCSQQDEP-UHFFFAOYSA-N

> <PUBCHEM_XLOGP3>
4.2

> <PUBCHEM_EXACT_MASS>
403.1485113

> <PUBCHEM_MOLECULAR_FORMULA>
C21H26ClN3OS

> <PUBCHEM_MOLECULAR_WEIGHT>
404.0

> <PUBCHEM_SMILES>
C1CN(CCN1CCCN2C3=CC=CC=C3SC4=C2C=C(C=C4)Cl)CCO

> <PUBCHEM_CONNECTIVITY_SMILES>
C1CN(CCN1CCCN2C3=CC=CC=C3SC4=C2C=C(C=C4)Cl)CCO

> <PUBCHEM_CACTVS_TPSA>
55.3

> <PUBCHEM_MONOISOTOPIC_WEIGHT>
403.1485113

> <PUBCHEM_TOTAL_CHARGE>
0

> <PUBCHEM_HEAVY_ATOM_COUNT>
27

> <PUBCHEM_ATOM_DEF_STEREO_COUNT>
0

> <PUBCHEM_ATOM_UDEF_STEREO_COUNT>
0

> <PUBCHEM_BOND_DEF_STEREO_COUNT>
0

> <PUBCHEM_BOND_UDEF_STEREO_COUNT>
0

> <PUBCHEM_ISOTOPIC_ATOM_COUNT>
0

> <PUBCHEM_COMPONENT_COUNT>
1

> <PUBCHEM_CACTVS_TAUTO_COUNT>
-1

> <PUBCHEM_COORDINATE_TYPE>
1
5
255

> <PUBCHEM_BONDANNOTATIONS>
16  18  8
16  20  8
17  19  8
17  21  8
18  22  8
19  23  8
20  24  8
21  25  8
22  26  8
23  27  8
24  26  8
25  27  8

$$$$
5452
  -OEChem-08112611002D

 51 54  0     1  0  0  0  0  0999 V2000
    4.6660   -3.2327    0.0000 S   0  0  0  0  0  0  0  0  0  0  0  0
    8.1962   -1.2085    0.0000 S   0  0  0  0  0  0  0  0  0  0  0  0
    2.9340    1.7673    0.0000 N   0  0  3  0  0  0  0  0  0  0  0  0
    4.6660   -1.2327    0.0000 N   0  0  0  0  0  0  0  0  0  0  0  0
    3.8000    1.2673    0.0000 C   0  0  3  0  0  0  0  0  0  0  0  0
    4.6660    1.7673    0.0000 C   0  0  0  0  0  0  0  0  0  0  0  0
    3.8000    0.2673    0.0000 C   0  0  0  0  0  0  0  0  0  0  0  0
    4.6660    2.7673    0.0000 C   0  0  0  0  0  0  0  0  0  0  0  0
    2.9340    2.7673    0.0000 C   0  0  0  0  0  0  0  0  0  0  0  0
    3.8000    3.2673    0.0000 C   0  0  0  0  0  0  0  0  0  0  0  0
    4.6660   -0.2327    0.0000 C   0  0  0  0  0  0  0  0  0  0  0  0
    2.0680    1.2673    0.0000 C   0  0  0  0  0  0  0  0  0  0  0  0
    5.5321   -1.7327    0.0000 C   0  0  0  0  0  0  0  0  0  0  0  0
    3.8000   -1.7327    0.0000 C   0  0  0  0  0  0  0  0  0  0  0  0
    5.5321   -2.7327    0.0000 C   0  0  0  0  0  0  0  0  0  0  0  0
    3.8000   -2.7327    0.0000 C   0  0  0  0  0  0  0  0  0  0  0  0
    6.4260   -1.1980    0.0000 C   0  0  0  0  0  0  0  0  0  0  0  0
    2.9061   -1.1980    0.0000 C   0  0  0  0  0  0  0  0  0  0  0  0
    6.4260   -3.2673    0.0000 C   0  0  0  0  0  0  0  0  0  0  0  0
    2.9061   -3.2673    0.0000 C   0  0  0  0  0  0  0  0  0  0  0  0
    7.3321   -1.7119    0.0000 C   0  0  0  0  0  0  0  0  0  0  0  0
    2.0000   -1.7119    0.0000 C   0  0  0  0  0  0  0  0  0  0  0  0
    7.3321   -2.7535    0.0000 C   0  0  0  0  0  0  0  0  0  0  0  0
    2.0000   -2.7535    0.0000 C   0  0  0  0  0  0  0  0  0  0  0  0
    9.0641   -1.7052    0.0000 C   0  0  0  0  0  0  0  0  0  0  0  0
    3.2631    0.9573    0.0000 H   0  0  0  0  0  0  0  0  0  0  0  0
    4.8781    1.1847    0.0000 H   0  0  0  0  0  0  0  0  0  0  0  0
    5.2766    1.8750    0.0000 H   0  0  0  0  0  0  0  0  0  0  0  0
    3.1894    0.3750    0.0000 H   0  0  0  0  0  0  0  0  0  0  0  0
    3.5880   -0.3153    0.0000 H   0  0  0  0  0  0  0  0  0  0  0  0
    5.2766    2.6597    0.0000 H   0  0  0  0  0  0  0  0  0  0  0  0
    4.8781    3.3499    0.0000 H   0  0  0  0  0  0  0  0  0  0  0  0
    2.7219    3.3499    0.0000 H   0  0  0  0  0  0  0  0  0  0  0  0
    2.3234    2.6597    0.0000 H   0  0  0  0  0  0  0  0  0  0  0  0
    4.1985    3.7423    0.0000 H   0  0  0  0  0  0  0  0  0  0  0  0
    3.4015    3.7423    0.0000 H   0  0  0  0  0  0  0  0  0  0  0  0
    5.2766   -0.3403    0.0000 H   0  0  0  0  0  0  0  0  0  0  0  0
    4.8781    0.3499    0.0000 H   0  0  0  0  0  0  0  0  0  0  0  0
    1.7580    1.8043    0.0000 H   0  0  0  0  0  0  0  0  0  0  0  0
    1.5310    0.9573    0.0000 H   0  0  0  0  0  0  0  0  0  0  0  0
    2.3780    0.7304    0.0000 H   0  0  0  0  0  0  0  0  0  0  0  0
    6.4188   -0.5781    0.0000 H   0  0  0  0  0  0  0  0  0  0  0  0
    2.9132   -0.5781    0.0000 H   0  0  0  0  0  0  0  0  0  0  0  0
    6.4188   -3.8873    0.0000 H   0  0  0  0  0  0  0  0  0  0  0  0
    2.9132   -3.8873    0.0000 H   0  0  0  0  0  0  0  0  0  0  0  0
    1.4643   -1.3998    0.0000 H   0  0  0  0  0  0  0  0  0  0  0  0
    7.8678   -3.0656    0.0000 H   0  0  0  0  0  0  0  0  0  0  0  0
    1.4643   -3.0656    0.0000 H   0  0  0  0  0  0  0  0  0  0  0  0
    8.7562   -2.2433    0.0000 H   0  0  0  0  0  0  0  0  0  0  0  0
    9.6022   -2.0131    0.0000 H   0  0  0  0  0  0  0  0  0  0  0  0
    9.3720   -1.1671    0.0000 H   0  0  0  0  0  0  0  0  0  0  0  0
  1 15  1  0  0  0  0
  1 16  1  0  0  0  0
  2 21  1  0  0  0  0
  2 25  1  0  0  0  0
  3  5  1  0  0  0  0
  3  9  1  0  0  0  0
  3 12  1  0  0  0  0
  4 11  1  0  0  0  0
  4 13  1  0  0  0  0
  4 14  1  0  0  0  0
  5  6  1  0  0  0  0
  5  7  1  0  0  0  0
  5 26  1  0  0  0  0
  6  8  1  0  0  0  0
  6 27  1  0  0  0  0
  6 28  1  0  0  0  0
  7 11  1  0  0  0  0
  7 29  1  0  0  0  0
  7 30  1  0  0  0  0
  8 10  1  0  0  0  0
  8 31  1  0  0  0  0
  8 32  1  0  0  0  0
  9 10  1  0  0  0  0
  9 33  1  0  0  0  0
  9 34  1  0  0  0  0
 10 35  1  0  0  0  0
 10 36  1  0  0  0  0
 11 37  1  0  0  0  0
 11 38  1  0  0  0  0
 12 39  1  0  0  0  0
 12 40  1  0  0  0  0
 12 41  1  0  0  0  0
 13 15  2  0  0  0  0
 13 17  1  0  0  0  0
 14 16  1  0  0  0  0
 14 18  2  0  0  0  0
 15 19  1  0  0  0  0
 16 20  2  0  0  0  0
 17 21  2  0  0  0  0
 17 42  1  0  0  0  0
 18 22  1  0  0  0  0
 18 43  1  0  0  0  0
 19 23  2  0  0  0  0
 19 44  1  0  0  0  0
 20 24  1  0  0  0  0
 20 45  1  0  0  0  0
 21 23  1  0  0  0  0
 22 24  2  0  0  0  0
 22 46  1  0  0  0  0
 23 47  1  0  0  0  0
 24 48  1  0  0  0  0
 25 49  1  0  0  0  0
 25 50  1  0  0  0  0
 25 51  1  0  0  0  0
M  END
> <PUBCHEM_COMPOUND_CID>
5452

> <PUBCHEM_COMPOUND_CANONICALIZED>
1

> <PUBCHEM_CACTVS_COMPLEXITY>
432

> <PUBCHEM_CACTVS_HBOND_ACCEPTOR>
4

> <PUBCHEM_CACTVS_HBOND_DONOR>
0

> <PUBCHEM_CACTVS_ROTATABLE_BOND>
4

> <PUBCHEM_CACTVS_SUBSKEYS>
AAADceB7AABgAAAAAAAAAAAAAAAAAAAAAAA8eIEAAAAAAACxQAAAHAQAAAAACCjBUASywYMAAAiAACRCQACCAAAhChAIiBwIZIgIIGLg0ZGEIAxggADoyAcQgAAAAAgAACAAAQAAEAAAQAACAAAAAAAAAA==

> <PUBCHEM_IUPAC_OPENEYE_NAME>
10-[2-(1-methyl-2-piperidyl)ethyl]-2-methylsulfanyl-phenothiazine

> <PUBCHEM_IUPAC_CAS_NAME>
10-[2-(1-methyl-2-piperidinyl)ethyl]-2-(methylthio)phenothiazine

> <PUBCHEM_IUPAC_NAME_MARKUP>
10-[2-(1-methylpiperidin-2-yl)ethyl]-2-methylsulfanylphenothiazine

> <PUBCHEM_IUPAC_NAME>
10-[2-(1-methylpiperidin-2-yl)ethyl]-2-methylsulfanylphenothiazine

> <PUBCHEM_IUPAC_SYSTEMATIC_NAME>
10-[2-(1-methylpiperidin-2-yl)ethyl]-2-methylsulfanyl-phenothiazine

> <PUBCHEM_IUPAC_TRADITIONAL_NAME>
10-[2-(1-methyl-2-piperidyl)ethyl]-2-(methylthio)phenothiazine

> <PUBCHEM_IUPAC_INCHI>
InChI=1S/C21H26N2S2/c1-22-13-6-5-7-16(22)12-14-23-18-8-3-4-9-20(18)25-21-11-10-17(24-2)15-19(21)23/h3-4,8-11,15-16H,5-7,12-14H2,1-2H3

> <PUBCHEM_IUPAC_INCHIKEY>
KLBQZWRITKRQQV-UHFFFAOYSA-N

> <PUBCHEM_XLOGP3>
5.9

> <PUBCHEM_EXACT_MASS>
370.15374118

> <PUBCHEM_MOLECULAR_FORMULA>
C21H26N2S2

> <PUBCHEM_MOLECULAR_WEIGHT>
370.6

> <PUBCHEM_SMILES>
CN1CCCCC1CCN2C3=CC=CC=C3SC4=C2C=C(C=C4)SC

> <PUBCHEM_CONNECTIVITY_SMILES>
CN1CCCCC1CCN2C3=CC=CC=C3SC4=C2C=C(C=C4)SC

> <PUBCHEM_CACTVS_TPSA>
57.1

> <PUBCHEM_MONOISOTOPIC_WEIGHT>
370.15374118

> <PUBCHEM_TOTAL_CHARGE>
0

> <PUBCHEM_HEAVY_ATOM_COUNT>
25

> <PUBCHEM_ATOM_DEF_STEREO_COUNT>
0

> <PUBCHEM_ATOM_UDEF_STEREO_COUNT>
1

> <PUBCHEM_BOND_DEF_STEREO_COUNT>
0

> <PUBCHEM_BOND_UDEF_STEREO_COUNT>
0

> <PUBCHEM_ISOTOPIC_ATOM_COUNT>
0

> <PUBCHEM_COMPONENT_COUNT>
1

> <PUBCHEM_CACTVS_TAUTO_COUNT>
-1

> <PUBCHEM_COORDINATE_TYPE>
1
5
255

> <PUBCHEM_BONDANNOTATIONS>
13  15  8
13  17  8
14  16  8
14  18  8
15  19  8
16  20  8
17  21  8
18  22  8
19  23  8
20  24  8
21  23  8
22  24  8
5  7  3

$$$$
5566
  -OEChem-08112611002D

 52 55  0     0  0  0  0  0  0999 V2000
    6.3301   -3.2327    0.0000 S   0  0  0  0  0  0  0  0  0  0  0  0
   10.7243   -0.7052    0.0000 F   0  0  0  0  0  0  0  0  0  0  0  0
   10.3636   -2.0726    0.0000 F   0  0  0  0  0  0  0  0  0  0  0  0
    9.3569   -0.3444    0.0000 F   0  0  0  0  0  0  0  0  0  0  0  0
    4.5981    1.7673    0.0000 N   0  0  0  0  0  0  0  0  0  0  0  0
    2.8660    2.7673    0.0000 N   0  0  0  0  0  0  0  0  0  0  0  0
    6.3301   -1.2327    0.0000 N   0  0  0  0  0  0  0  0  0  0  0  0
    3.7321    1.2673    0.0000 C   0  0  0  0  0  0  0  0  0  0  0  0
    4.5981    2.7673    0.0000 C   0  0  0  0  0  0  0  0  0  0  0  0
    5.4641    1.2673    0.0000 C   0  0  0  0  0  0  0  0  0  0  0  0
    2.8660    1.7673    0.0000 C   0  0  0  0  0  0  0  0  0  0  0  0
    3.7321    3.2673    0.0000 C   0  0  0  0  0  0  0  0  0  0  0  0
    5.4641    0.2673    0.0000 C   0  0  0  0  0  0  0  0  0  0  0  0
    6.3301   -0.2327    0.0000 C   0  0  0  0  0  0  0  0  0  0  0  0
    2.0000    3.2673    0.0000 C   0  0  0  0  0  0  0  0  0  0  0  0
    7.1962   -1.7327    0.0000 C   0  0  0  0  0  0  0  0  0  0  0  0
    5.4641   -1.7327    0.0000 C   0  0  0  0  0  0  0  0  0  0  0  0
    7.1962   -2.7327    0.0000 C   0  0  0  0  0  0  0  0  0  0  0  0
    5.4641   -2.7327    0.0000 C   0  0  0  0  0  0  0  0  0  0  0  0
    8.0901   -1.1980    0.0000 C   0  0  0  0  0  0  0  0  0  0  0  0
    4.5702   -1.1980    0.0000 C   0  0  0  0  0  0  0  0  0  0  0  0
    8.9962   -1.7119    0.0000 C   0  0  0  0  0  0  0  0  0  0  0  0
    8.0901   -3.2673    0.0000 C   0  0  0  0  0  0  0  0  0  0  0  0
    4.5702   -3.2673    0.0000 C   0  0  0  0  0  0  0  0  0  0  0  0
    8.9962   -2.7535    0.0000 C   0  0  0  0  0  0  0  0  0  0  0  0
    3.6641   -1.7119    0.0000 C   0  0  0  0  0  0  0  0  0  0  0  0
    3.6641   -2.7535    0.0000 C   0  0  0  0  0  0  0  0  0  0  0  0
    9.8603   -1.2085    0.0000 C   0  0  0  0  0  0  0  0  0  0  0  0
    3.3335    0.7924    0.0000 H   0  0  0  0  0  0  0  0  0  0  0  0
    4.1306    0.7924    0.0000 H   0  0  0  0  0  0  0  0  0  0  0  0
    5.2087    2.6597    0.0000 H   0  0  0  0  0  0  0  0  0  0  0  0
    4.8101    3.3499    0.0000 H   0  0  0  0  0  0  0  0  0  0  0  0
    6.0747    1.1597    0.0000 H   0  0  0  0  0  0  0  0  0  0  0  0
    5.6762    1.8499    0.0000 H   0  0  0  0  0  0  0  0  0  0  0  0
    2.2554    1.8750    0.0000 H   0  0  0  0  0  0  0  0  0  0  0  0
    2.6540    1.1847    0.0000 H   0  0  0  0  0  0  0  0  0  0  0  0
    4.1306    3.7423    0.0000 H   0  0  0  0  0  0  0  0  0  0  0  0
    3.3335    3.7423    0.0000 H   0  0  0  0  0  0  0  0  0  0  0  0
    4.8535    0.3750    0.0000 H   0  0  0  0  0  0  0  0  0  0  0  0
    5.2521   -0.3153    0.0000 H   0  0  0  0  0  0  0  0  0  0  0  0
    6.9407   -0.3403    0.0000 H   0  0  0  0  0  0  0  0  0  0  0  0
    6.5422    0.3499    0.0000 H   0  0  0  0  0  0  0  0  0  0  0  0
    2.3100    3.8043    0.0000 H   0  0  0  0  0  0  0  0  0  0  0  0
    1.4631    3.5773    0.0000 H   0  0  0  0  0  0  0  0  0  0  0  0
    1.6900    2.7304    0.0000 H   0  0  0  0  0  0  0  0  0  0  0  0
    8.0829   -0.5781    0.0000 H   0  0  0  0  0  0  0  0  0  0  0  0
    4.5773   -0.5781    0.0000 H   0  0  0  0  0  0  0  0  0  0  0  0
    8.0829   -3.8873    0.0000 H   0  0  0  0  0  0  0  0  0  0  0  0
    4.5773   -3.8873    0.0000 H   0  0  0  0  0  0  0  0  0  0  0  0
    9.5319   -3.0656    0.0000 H   0  0  0  0  0  0  0  0  0  0  0  0
    3.1284   -1.3998    0.0000 H   0  0  0  0  0  0  0  0  0  0  0  0
    3.1284   -3.0656    0.0000 H   0  0  0  0  0  0  0  0  0  0  0  0
  1 18  1  0  0  0  0
  1 19  1  0  0  0  0
  2 28  1  0  0  0  0
  3 28  1  0  0  0  0
  4 28  1  0  0  0  0
  5  8  1  0  0  0  0
  5  9  1  0  0  0  0
  5 10  1  0  0  0  0
  6 11  1  0  0  0  0
  6 12  1  0  0  0  0
  6 15  1  0  0  0  0
  7 14  1  0  0  0  0
  7 16  1  0  0  0  0
  7 17  1  0  0  0  0
  8 11  1  0  0  0  0
  8 29  1  0  0  0  0
  8 30  1  0  0  0  0
  9 12  1  0  0  0  0
  9 31  1  0  0  0  0
  9 32  1  0  0  0  0
 10 13  1  0  0  0  0
 10 33  1  0  0  0  0
 10 34  1  0  0  0  0
 11 35  1  0  0  0  0
 11 36  1  0  0  0  0
 12 37  1  0  0  0  0
 12 38  1  0  0  0  0
 13 14  1  0  0  0  0
 13 39  1  0  0  0  0
 13 40  1  0  0  0  0
 14 41  1  0  0  0  0
 14 42  1  0  0  0  0
 15 43  1  0  0  0  0
 15 44  1  0  0  0  0
 15 45  1  0  0  0  0
 16 18  2  0  0  0  0
 16 20  1  0  0  0  0
 17 19  1  0  0  0  0
 17 21  2  0  0  0  0
 18 23  1  0  0  0  0
 19 24  2  0  0  0  0
 20 22  2  0  0  0  0
 20 46  1  0  0  0  0
 21 26  1  0  0  0  0
 21 47  1  0  0  0  0
 22 25  1  0  0  0  0
 22 28  1  0  0  0  0
 23 25  2  0  0  0  0
 23 48  1  0  0  0  0
 24 27  1  0  0  0  0
 24 49  1  0  0  0  0
 25 50  1  0  0  0  0
 26 27  2  0  0  0  0
 26 51  1  0  0  0  0
 27 52  1  0  0  0  0
M  END
> <PUBCHEM_COMPOUND_CID>
5566

> <PUBCHEM_COMPOUND_CANONICALIZED>
1

> <PUBCHEM_CACTVS_COMPLEXITY>
510

> <PUBCHEM_CACTVS_HBOND_ACCEPTOR>
7

> <PUBCHEM_CACTVS_HBOND_DONOR>
0

> <PUBCHEM_CACTVS_ROTATABLE_BOND>
4

> <PUBCHEM_CACTVS_SUBSKEYS>
AAADceB7AYBAAAAAAAAAAAAAAAAAAAAAAAA8eIEAAAAAAACxQAAAHQQAAAAADAjBWBQywYMAAAiAAiRCQACCAAAhChAIiBwIZIgIYGLg0ZGUIAhggADoyAcQgAAOEAAAQAAAAQAgAACAAAACAAAAAAAAAA==

> <PUBCHEM_IUPAC_OPENEYE_NAME>
10-[3-(4-methylpiperazin-1-yl)propyl]-2-(trifluoromethyl)phenothiazine

> <PUBCHEM_IUPAC_CAS_NAME>
10-[3-(4-methyl-1-piperazinyl)propyl]-2-(trifluoromethyl)phenothiazine

> <PUBCHEM_IUPAC_NAME_MARKUP>
10-[3-(4-methylpiperazin-1-yl)propyl]-2-(trifluoromethyl)phenothiazine

> <PUBCHEM_IUPAC_NAME>
10-[3-(4-methylpiperazin-1-yl)propyl]-2-(trifluoromethyl)phenothiazine

> <PUBCHEM_IUPAC_SYSTEMATIC_NAME>
10-[3-(4-methylpiperazin-1-yl)propyl]-2-(trifluoromethyl)phenothiazine

> <PUBCHEM_IUPAC_TRADITIONAL_NAME>
10-[3-(4-methylpiperazino)propyl]-2-(trifluoromethyl)phenothiazine

> <PUBCHEM_IUPAC_INCHI>
InChI=1S/C21H24F3N3S/c1-25-11-13-26(14-12-25)9-4-10-27-17-5-2-3-6-19(17)28-20-8-7-16(15-18(20)27)21(22,23)24/h2-3,5-8,15H,4,9-14H2,1H3

> <PUBCHEM_IUPAC_INCHIKEY>
ZEWQUBUPAILYHI-UHFFFAOYSA-N

> <PUBCHEM_XLOGP3>
5

> <PUBCHEM_EXACT_MASS>
407.16430344

> <PUBCHEM_MOLECULAR_FORMULA>
C21H24F3N3S

> <PUBCHEM_MOLECULAR_WEIGHT>
407.5

> <PUBCHEM_SMILES>
CN1CCN(CC1)CCCN2C3=CC=CC=C3SC4=C2C=C(C=C4)C(F)(F)F

> <PUBCHEM_CONNECTIVITY_SMILES>
CN1CCN(CC1)CCCN2C3=CC=CC=C3SC4=C2C=C(C=C4)C(F)(F)F

> <PUBCHEM_CACTVS_TPSA>
35

> <PUBCHEM_MONOISOTOPIC_WEIGHT>
407.16430344

> <PUBCHEM_TOTAL_CHARGE>
0

> <PUBCHEM_HEAVY_ATOM_COUNT>
28

> <PUBCHEM_ATOM_DEF_STEREO_COUNT>
0

> <PUBCHEM_ATOM_UDEF_STEREO_COUNT>
0

> <PUBCHEM_BOND_DEF_STEREO_COUNT>
0

> <PUBCHEM_BOND_UDEF_STEREO_COUNT>
0

> <PUBCHEM_ISOTOPIC_ATOM_COUNT>
0

> <PUBCHEM_COMPONENT_COUNT>
1

> <PUBCHEM_CACTVS_TAUTO_COUNT>
-1

> <PUBCHEM_COORDINATE_TYPE>
1
5
255

> <PUBCHEM_BONDANNOTATIONS>
16  18  8
16  20  8
17  19  8
17  21  8
18  23  8
19  24  8
20  22  8
21  26  8
22  25  8
23  25  8
24  27  8
26  27  8

$$$$
72287
  -OEChem-08112611002D

 47 49  0     1  0  0  0  0  0999 V2000
    4.6660   -2.9827    0.0000 S   0  0  0  0  0  0  0  0  0  0  0  0
    8.1962   -0.9585    0.0000 O   0  0  0  0  0  0  0  0  0  0  0  0
    4.6660   -0.9827    0.0000 N   0  0  0  0  0  0  0  0  0  0  0  0
    2.9340    2.0173    0.0000 N   0  0  0  0  0  0  0  0  0  0  0  0
    3.8000    0.5173    0.0000 C   0  0  1  0  0  0  0  0  0  0  0  0
    4.6660    0.0173    0.0000 C   0  0  0  0  0  0  0  0  0  0  0  0
    3.8000    1.5173    0.0000 C   0  0  0  0  0  0  0  0  0  0  0  0
    2.9340    0.0173    0.0000 C   0  0  0  0  0  0  0  0  0  0  0  0
    5.5321   -1.4827    0.0000 C   0  0  0  0  0  0  0  0  0  0  0  0
    3.8000   -1.4827    0.0000 C   0  0  0  0  0  0  0  0  0  0  0  0
    5.5321   -2.4827    0.0000 C   0  0  0  0  0  0  0  0  0  0  0  0
    3.8000   -2.4827    0.0000 C   0  0  0  0  0  0  0  0  0  0  0  0
    6.4260   -0.9480    0.0000 C   0  0  0  0  0  0  0  0  0  0  0  0
    2.9061   -0.9480    0.0000 C   0  0  0  0  0  0  0  0  0  0  0  0
    2.9340    3.0173    0.0000 C   0  0  0  0  0  0  0  0  0  0  0  0
    2.0680    1.5173    0.0000 C   0  0  0  0  0  0  0  0  0  0  0  0
    6.4260   -3.0173    0.0000 C   0  0  0  0  0  0  0  0  0  0  0  0
    2.9061   -3.0173    0.0000 C   0  0  0  0  0  0  0  0  0  0  0  0
    7.3321   -1.4619    0.0000 C   0  0  0  0  0  0  0  0  0  0  0  0
    2.0000   -1.4619    0.0000 C   0  0  0  0  0  0  0  0  0  0  0  0
    7.3321   -2.5035    0.0000 C   0  0  0  0  0  0  0  0  0  0  0  0
    2.0000   -2.5035    0.0000 C   0  0  0  0  0  0  0  0  0  0  0  0
    9.0641   -1.4552    0.0000 C   0  0  0  0  0  0  0  0  0  0  0  0
    3.8000   -0.1027    0.0000 H   0  0  0  0  0  0  0  0  0  0  0  0
    5.2766   -0.0903    0.0000 H   0  0  0  0  0  0  0  0  0  0  0  0
    4.8781    0.5999    0.0000 H   0  0  0  0  0  0  0  0  0  0  0  0
    4.4106    1.4097    0.0000 H   0  0  0  0  0  0  0  0  0  0  0  0
    4.0121    2.0999    0.0000 H   0  0  0  0  0  0  0  0  0  0  0  0
    2.6240    0.5543    0.0000 H   0  0  0  0  0  0  0  0  0  0  0  0
    2.3971   -0.2927    0.0000 H   0  0  0  0  0  0  0  0  0  0  0  0
    3.2440   -0.5196    0.0000 H   0  0  0  0  0  0  0  0  0  0  0  0
    6.4188   -0.3281    0.0000 H   0  0  0  0  0  0  0  0  0  0  0  0
    2.9132   -0.3281    0.0000 H   0  0  0  0  0  0  0  0  0  0  0  0
    3.5540    3.0173    0.0000 H   0  0  0  0  0  0  0  0  0  0  0  0
    2.9340    3.6373    0.0000 H   0  0  0  0  0  0  0  0  0  0  0  0
    2.3140    3.0173    0.0000 H   0  0  0  0  0  0  0  0  0  0  0  0
    1.7580    2.0543    0.0000 H   0  0  0  0  0  0  0  0  0  0  0  0
    1.5310    1.2073    0.0000 H   0  0  0  0  0  0  0  0  0  0  0  0
    2.3780    0.9804    0.0000 H   0  0  0  0  0  0  0  0  0  0  0  0
    6.4188   -3.6373    0.0000 H   0  0  0  0  0  0  0  0  0  0  0  0
    2.9132   -3.6373    0.0000 H   0  0  0  0  0  0  0  0  0  0  0  0
    1.4643   -1.1498    0.0000 H   0  0  0  0  0  0  0  0  0  0  0  0
    7.8678   -2.8156    0.0000 H   0  0  0  0  0  0  0  0  0  0  0  0
    1.4643   -2.8156    0.0000 H   0  0  0  0  0  0  0  0  0  0  0  0
    8.7562   -1.9933    0.0000 H   0  0  0  0  0  0  0  0  0  0  0  0
    9.6022   -1.7631    0.0000 H   0  0  0  0  0  0  0  0  0  0  0  0
    9.3720   -0.9171    0.0000 H   0  0  0  0  0  0  0  0  0  0  0  0
  1 11  1  0  0  0  0
  1 12  1  0  0  0  0
  2 19  1  0  0  0  0
  2 23  1  0  0  0  0
  3  6  1  0  0  0  0
  3  9  1  0  0  0  0
  3 10  1  0  0  0  0
  4  7  1  0  0  0  0
  4 15  1  0  0  0  0
  4 16  1  0  0  0  0
  5  6  1  0  0  0  0
  5  7  1  0  0  0  0
  5  8  1  6  0  0  0
  5 24  1  0  0  0  0
  6 25  1  0  0  0  0
  6 26  1  0  0  0  0
  7 27  1  0  0  0  0
  7 28  1  0  0  0  0
  8 29  1  0  0  0  0
  8 30  1  0  0  0  0
  8 31  1  0  0  0  0
  9 11  2  0  0  0  0
  9 13  1  0  0  0  0
 10 12  1  0  0  0  0
 10 14  2  0  0  0  0
 11 17  1  0  0  0  0
 12 18  2  0  0  0  0
 13 19  2  0  0  0  0
 13 32  1  0  0  0  0
 14 20  1  0  0  0  0
 14 33  1  0  0  0  0
 15 34  1  0  0  0  0
 15 35  1  0  0  0  0
 15 36  1  0  0  0  0
 16 37  1  0  0  0  0
 16 38  1  0  0  0  0
 16 39  1  0  0  0  0
 17 21  2  0  0  0  0
 17 40  1  0  0  0  0
 18 22  1  0  0  0  0
 18 41  1  0  0  0  0
 19 21  1  0  0  0  0
 20 22  2  0  0  0  0
 20 42  1  0  0  0  0
 21 43  1  0  0  0  0
 22 44  1  0  0  0  0
 23 45  1  0  0  0  0
 23 46  1  0  0  0  0
 23 47  1  0  0  0  0
M  END
> <PUBCHEM_COMPOUND_CID>
72287

> <PUBCHEM_COMPOUND_CANONICALIZED>
1

> <PUBCHEM_CACTVS_COMPLEXITY>
378

> <PUBCHEM_CACTVS_HBOND_ACCEPTOR>
4

> <PUBCHEM_CACTVS_HBOND_DONOR>
0

> <PUBCHEM_CACTVS_ROTATABLE_BOND>
5

> <PUBCHEM_CACTVS_SUBSKEYS>
AAADceB7IABAAAAAAAAAAAAAAAAAAAAAAAA8YIAAAAAAAACxQAAAHgQAAAAADQzB0AYyx4MABAiAACRCQACCCAAhKhAIiBwObIgMJmLk8ZuEMChmwBno6AeQUAMAAIAAAgAAAQABAAAEAAACAAAAAAAAAA==

> <PUBCHEM_IUPAC_OPENEYE_NAME>
(2R)-3-(2-methoxyphenothiazin-10-yl)-N,N,2-trimethyl-propan-1-amine

> <PUBCHEM_IUPAC_CAS_NAME>
(2R)-3-(2-methoxy-10-phenothiazinyl)-N,N,2-trimethyl-1-propanamine

> <PUBCHEM_IUPAC_NAME_MARKUP>
(2<I>R</I>)-3-(2-methoxyphenothiazin-10-yl)-<I>N</I>,<I>N</I>,2-trimethylpropan-1-amine

> <PUBCHEM_IUPAC_NAME>
(2R)-3-(2-methoxyphenothiazin-10-yl)-N,N,2-trimethylpropan-1-amine

> <PUBCHEM_IUPAC_SYSTEMATIC_NAME>
(2R)-3-(2-methoxyphenothiazin-10-yl)-N,N,2-trimethyl-propan-1-amine

> <PUBCHEM_IUPAC_TRADITIONAL_NAME>
[(2R)-3-(2-methoxyphenothiazin-10-yl)-2-methyl-propyl]-dimethyl-amine

> <PUBCHEM_IUPAC_INCHI>
InChI=1S/C19H24N2OS/c1-14(12-20(2)3)13-21-16-7-5-6-8-18(16)23-19-10-9-15(22-4)11-17(19)21/h5-11,14H,12-13H2,1-4H3/t14-/m1/s1

> <PUBCHEM_IUPAC_INCHIKEY>
VRQVVMDWGGWHTJ-CQSZACIVSA-N

> <PUBCHEM_XLOGP3>
4.7

> <PUBCHEM_EXACT_MASS>
328.16093457

> <PUBCHEM_MOLECULAR_FORMULA>
C19H24N2OS

> <PUBCHEM_MOLECULAR_WEIGHT>
328.5

> <PUBCHEM_SMILES>
C[C@@H](CN1C2=CC=CC=C2SC3=C1C=C(C=C3)OC)CN(C)C

> <PUBCHEM_CONNECTIVITY_SMILES>
CC(CN1C2=CC=CC=C2SC3=C1C=C(C=C3)OC)CN(C)C

> <PUBCHEM_CACTVS_TPSA>
41

> <PUBCHEM_MONOISOTOPIC_WEIGHT>
328.16093457

> <PUBCHEM_TOTAL_CHARGE>
0

> <PUBCHEM_HEAVY_ATOM_COUNT>
23

> <PUBCHEM_ATOM_DEF_STEREO_COUNT>
1

> <PUBCHEM_ATOM_UDEF_STEREO_COUNT>
0

> <PUBCHEM_BOND_DEF_STEREO_COUNT>
0

> <PUBCHEM_BOND_UDEF_STEREO_COUNT>
0

> <PUBCHEM_ISOTOPIC_ATOM_COUNT>
0

> <PUBCHEM_COMPONENT_COUNT>
1

> <PUBCHEM_CACTVS_TAUTO_COUNT>
-1

> <PUBCHEM_COORDINATE_TYPE>
1
5
255

> <PUBCHEM_BONDANNOTATIONS>
10  12  8
10  14  8
11  17  8
12  18  8
13  19  8
14  20  8
17  21  8
18  22  8
19  21  8
20  22  8
5  8  6
9  11  8
9  13  8

$$$$
3559
  -OEChem-08112611002D

 49 51  0     0  0  0  0  0  0999 V2000
    6.5981    6.2321    0.0000 Cl  0  0  0  0  0  0  0  0  0  0  0  0
    2.8660   -6.2321    0.0000 F   0  0  0  0  0  0  0  0  0  0  0  0
    4.0981    3.6340    0.0000 O   0  0  0  0  0  0  0  0  0  0  0  0
    2.0000   -1.7321    0.0000 O   0  0  0  0  0  0  0  0  0  0  0  0
    4.5981    0.7679    0.0000 N   0  0  0  0  0  0  0  0  0  0  0  0
    4.5981    2.7680    0.0000 C   0  0  0  0  0  0  0  0  0  0  0  0
    5.4641    2.2680    0.0000 C   0  0  0  0  0  0  0  0  0  0  0  0
    3.7321    2.2680    0.0000 C   0  0  0  0  0  0  0  0  0  0  0  0
    5.4641    1.2680    0.0000 C   0  0  0  0  0  0  0  0  0  0  0  0
    3.7321    1.2680    0.0000 C   0  0  0  0  0  0  0  0  0  0  0  0
    4.5981   -0.2321    0.0000 C   0  0  0  0  0  0  0  0  0  0  0  0
    5.0981    3.6340    0.0000 C   0  0  0  0  0  0  0  0  0  0  0  0
    3.7321   -0.7321    0.0000 C   0  0  0  0  0  0  0  0  0  0  0  0
    4.5981    4.5000    0.0000 C   0  0  0  0  0  0  0  0  0  0  0  0
    6.0981    3.6340    0.0000 C   0  0  0  0  0  0  0  0  0  0  0  0
    3.7321   -1.7321    0.0000 C   0  0  0  0  0  0  0  0  0  0  0  0
    5.0981    5.3660    0.0000 C   0  0  0  0  0  0  0  0  0  0  0  0
    6.5981    4.5000    0.0000 C   0  0  0  0  0  0  0  0  0  0  0  0
    2.8660   -2.2321    0.0000 C   0  0  0  0  0  0  0  0  0  0  0  0
    6.0981    5.3660    0.0000 C   0  0  0  0  0  0  0  0  0  0  0  0
    2.8660   -3.2321    0.0000 C   0  0  0  0  0  0  0  0  0  0  0  0
    3.7321   -3.7321    0.0000 C   0  0  0  0  0  0  0  0  0  0  0  0
    2.0000   -3.7321    0.0000 C   0  0  0  0  0  0  0  0  0  0  0  0
    3.7321   -4.7321    0.0000 C   0  0  0  0  0  0  0  0  0  0  0  0
    2.0000   -4.7321    0.0000 C   0  0  0  0  0  0  0  0  0  0  0  0
    2.8660   -5.2321    0.0000 C   0  0  0  0  0  0  0  0  0  0  0  0
    6.0747    2.1603    0.0000 H   0  0  0  0  0  0  0  0  0  0  0  0
    5.6762    2.8506    0.0000 H   0  0  0  0  0  0  0  0  0  0  0  0
    3.5200    2.8506    0.0000 H   0  0  0  0  0  0  0  0  0  0  0  0
    3.1215    2.1603    0.0000 H   0  0  0  0  0  0  0  0  0  0  0  0
    5.6762    0.6853    0.0000 H   0  0  0  0  0  0  0  0  0  0  0  0
    6.0747    1.3756    0.0000 H   0  0  0  0  0  0  0  0  0  0  0  0
    3.1215    1.3756    0.0000 H   0  0  0  0  0  0  0  0  0  0  0  0
    3.5200    0.6853    0.0000 H   0  0  0  0  0  0  0  0  0  0  0  0
    4.8101   -0.8147    0.0000 H   0  0  0  0  0  0  0  0  0  0  0  0
    5.2087   -0.1244    0.0000 H   0  0  0  0  0  0  0  0  0  0  0  0
    3.5200   -0.1494    0.0000 H   0  0  0  0  0  0  0  0  0  0  0  0
    3.1215   -0.8397    0.0000 H   0  0  0  0  0  0  0  0  0  0  0  0
    3.4781    3.6340    0.0000 H   0  0  0  0  0  0  0  0  0  0  0  0
    3.9781    4.5000    0.0000 H   0  0  0  0  0  0  0  0  0  0  0  0
    6.4081    3.0970    0.0000 H   0  0  0  0  0  0  0  0  0  0  0  0
    3.9441   -2.3147    0.0000 H   0  0  0  0  0  0  0  0  0  0  0  0
    4.3426   -1.6244    0.0000 H   0  0  0  0  0  0  0  0  0  0  0  0
    4.7881    5.9030    0.0000 H   0  0  0  0  0  0  0  0  0  0  0  0
    7.2181    4.5000    0.0000 H   0  0  0  0  0  0  0  0  0  0  0  0
    4.2690   -3.4221    0.0000 H   0  0  0  0  0  0  0  0  0  0  0  0
    1.4631   -3.4221    0.0000 H   0  0  0  0  0  0  0  0  0  0  0  0
    4.2690   -5.0421    0.0000 H   0  0  0  0  0  0  0  0  0  0  0  0
    1.4631   -5.0421    0.0000 H   0  0  0  0  0  0  0  0  0  0  0  0
  1 20  1  0  0  0  0
  2 26  1  0  0  0  0
  3  6  1  0  0  0  0
  3 39  1  0  0  0  0
  4 19  2  0  0  0  0
  5  9  1  0  0  0  0
  5 10  1  0  0  0  0
  5 11  1  0  0  0  0
  6  7  1  0  0  0  0
  6  8  1  0  0  0  0
  6 12  1  0  0  0  0
  7  9  1  0  0  0  0
  7 27  1  0  0  0  0
  7 28  1  0  0  0  0
  8 10  1  0  0  0  0
  8 29  1  0  0  0  0
  8 30  1  0  0  0  0
  9 31  1  0  0  0  0
  9 32  1  0  0  0  0
 10 33  1  0  0  0  0
 10 34  1  0  0  0  0
 11 13  1  0  0  0  0
 11 35  1  0  0  0  0
 11 36  1  0  0  0  0
 12 14  2  0  0  0  0
 12 15  1  0  0  0  0
 13 16  1  0  0  0  0
 13 37  1  0  0  0  0
 13 38  1  0  0  0  0
 14 17  1  0  0  0  0
 14 40  1  0  0  0  0
 15 18  2  0  0  0  0
 15 41  1  0  0  0  0
 16 19  1  0  0  0  0
 16 42  1  0  0  0  0
 16 43  1  0  0  0  0
 17 20  2  0  0  0  0
 17 44  1  0  0  0  0
 18 20  1  0  0  0  0
 18 45  1  0  0  0  0
 19 21  1  0  0  0  0
 21 22  2  0  0  0  0
 21 23  1  0  0  0  0
 22 24  1  0  0  0  0
 22 46  1  0  0  0  0
 23 25  2  0  0  0  0
 23 47  1  0  0  0  0
 24 26  2  0  0  0  0
 24 48  1  0  0  0  0
 25 26  1  0  0  0  0
 25 49  1  0  0  0  0
M  END
> <PUBCHEM_COMPOUND_CID>
3559

> <PUBCHEM_COMPOUND_CANONICALIZED>
1

> <PUBCHEM_CACTVS_COMPLEXITY>
451

> <PUBCHEM_CACTVS_HBOND_ACCEPTOR>
4

> <PUBCHEM_CACTVS_HBOND_DONOR>
1

> <PUBCHEM_CACTVS_ROTATABLE_BOND>
6

> <PUBCHEM_CACTVS_SUBSKEYS>
AAADceB6MQAEAAAAAAAAAAAAAAAAAAAAAAA8YIAAAAAAAAABQAAAHwIACAAADEbBmCwwAIMAAgCIAqBSAAACAAAkBQAIiAEICsgIJjKBlxCEcQAmwAGImYecyOCOhAAAAAAAAAAIAAAAAAAAAAAAAAAAAA==

> <PUBCHEM_IUPAC_OPENEYE_NAME>
4-[4-(4-chlorophenyl)-4-hydroxy-1-piperidyl]-1-(4-fluorophenyl)butan-1-one

> <PUBCHEM_IUPAC_CAS_NAME>
4-[4-(4-chlorophenyl)-4-hydroxy-1-piperidinyl]-1-(4-fluorophenyl)-1-butanone

> <PUBCHEM_IUPAC_NAME_MARKUP>
4-[4-(4-chlorophenyl)-4-hydroxypiperidin-1-yl]-1-(4-fluorophenyl)butan-1-one

> <PUBCHEM_IUPAC_NAME>
4-[4-(4-chlorophenyl)-4-hydroxypiperidin-1-yl]-1-(4-fluorophenyl)butan-1-one

> <PUBCHEM_IUPAC_SYSTEMATIC_NAME>
4-[4-(4-chlorophenyl)-4-oxidanyl-piperidin-1-yl]-1-(4-fluorophenyl)butan-1-one

> <PUBCHEM_IUPAC_TRADITIONAL_NAME>
4-[4-(4-chlorophenyl)-4-hydroxy-piperidino]-1-(4-fluorophenyl)butan-1-one

> <PUBCHEM_IUPAC_INCHI>
InChI=1S/C21H23ClFNO2/c22-18-7-5-17(6-8-18)21(26)11-14-24(15-12-21)13-1-2-20(25)16-3-9-19(23)10-4-16/h3-10,26H,1-2,11-15H2

> <PUBCHEM_IUPAC_INCHIKEY>
LNEPOXFFQSENCJ-UHFFFAOYSA-N

> <PUBCHEM_XLOGP3>
3.2

> <PUBCHEM_EXACT_MASS>
375.1401348

> <PUBCHEM_MOLECULAR_FORMULA>
C21H23ClFNO2

> <PUBCHEM_MOLECULAR_WEIGHT>
375.9

> <PUBCHEM_SMILES>
C1CN(CCC1(C2=CC=C(C=C2)Cl)O)CCCC(=O)C3=CC=C(C=C3)F

> <PUBCHEM_CONNECTIVITY_SMILES>
C1CN(CCC1(C2=CC=C(C=C2)Cl)O)CCCC(=O)C3=CC=C(C=C3)F

> <PUBCHEM_CACTVS_TPSA>
40.5

> <PUBCHEM_MONOISOTOPIC_WEIGHT>
375.1401348

> <PUBCHEM_TOTAL_CHARGE>
0

> <PUBCHEM_HEAVY_ATOM_COUNT>
26

> <PUBCHEM_ATOM_DEF_STEREO_COUNT>
0

> <PUBCHEM_ATOM_UDEF_STEREO_COUNT>
0

> <PUBCHEM_BOND_DEF_STEREO_COUNT>
0

> <PUBCHEM_BOND_UDEF_STEREO_COUNT>
0

> <PUBCHEM_ISOTOPIC_ATOM_COUNT>
0

> <PUBCHEM_COMPONENT_COUNT>
1

> <PUBCHEM_CACTVS_TAUTO_COUNT>
-1

> <PUBCHEM_COORDINATE_TYPE>
1
5
255

> <PUBCHEM_BONDANNOTATIONS>
12  14  8
12  15  8
14  17  8
15  18  8
17  20  8
18  20  8
21  22  8
21  23  8
22  24  8
23  25  8
24  26  8
25  26  8

$$$$
3168
  -OEChem-08112611002D

 50 53  0     1  0  0  0  0  0999 V2000
    9.4312    5.5830    0.0000 F   0  0  0  0  0  0  0  0  0  0  0  0
    6.2619   -4.1889    0.0000 O   0  0  0  0  0  0  0  0  0  0  0  0
    8.8564    1.0366    0.0000 O   0  0  0  0  0  0  0  0  0  0  0  0
    5.6103   -0.5326    0.0000 N   0  0  3  0  0  0  0  0  0  0  0  0
    4.6783   -3.3842    0.0000 N   0  0  0  0  0  0  0  0  0  0  0  0
    4.6783   -4.9936    0.0000 N   0  0  0  0  0  0  0  0  0  0  0  0
    4.6318   -0.7388    0.0000 C   0  0  0  0  0  0  0  0  0  0  0  0
    4.3211   -1.6893    0.0000 C   0  0  0  0  0  0  0  0  0  0  0  0
    6.2781   -1.2769    0.0000 C   0  0  0  0  0  0  0  0  0  0  0  0
    4.9889   -2.4337    0.0000 C   0  0  0  0  0  0  0  0  0  0  0  0
    5.9209    0.4179    0.0000 C   0  0  0  0  0  0  0  0  0  0  0  0
    5.9674   -2.2274    0.0000 C   0  0  0  0  0  0  0  0  0  0  0  0
    6.8994    0.6241    0.0000 C   0  0  0  0  0  0  0  0  0  0  0  0
    3.7321   -3.6889    0.0000 C   0  0  0  0  0  0  0  0  0  0  0  0
    7.2101    1.5747    0.0000 C   0  0  0  0  0  0  0  0  0  0  0  0
    5.2619   -4.1889    0.0000 C   0  0  0  0  0  0  0  0  0  0  0  0
    3.7321   -4.6889    0.0000 C   0  0  0  0  0  0  0  0  0  0  0  0
    2.8660   -3.1889    0.0000 C   0  0  0  0  0  0  0  0  0  0  0  0
    8.1886    1.7809    0.0000 C   0  0  0  0  0  0  0  0  0  0  0  0
    2.8660   -5.1889    0.0000 C   0  0  0  0  0  0  0  0  0  0  0  0
    2.0000   -3.6889    0.0000 C   0  0  0  0  0  0  0  0  0  0  0  0
    2.0000   -4.6889    0.0000 C   0  0  0  0  0  0  0  0  0  0  0  0
    8.4993    2.7314    0.0000 C   0  0  0  0  0  0  0  0  0  0  0  0
    7.8314    3.4757    0.0000 C   0  0  0  0  0  0  0  0  0  0  0  0
    9.4778    2.9376    0.0000 C   0  0  0  0  0  0  0  0  0  0  0  0
    8.1421    4.4262    0.0000 C   0  0  0  0  0  0  0  0  0  0  0  0
    9.7884    3.8881    0.0000 C   0  0  0  0  0  0  0  0  0  0  0  0
    9.1206    4.6324    0.0000 C   0  0  0  0  0  0  0  0  0  0  0  0
    4.6112   -0.1192    0.0000 H   0  0  0  0  0  0  0  0  0  0  0  0
    4.0179   -0.6515    0.0000 H   0  0  0  0  0  0  0  0  0  0  0  0
    3.7742   -1.3973    0.0000 H   0  0  0  0  0  0  0  0  0  0  0  0
    3.9385   -2.1773    0.0000 H   0  0  0  0  0  0  0  0  0  0  0  0
    6.8250   -1.5689    0.0000 H   0  0  0  0  0  0  0  0  0  0  0  0
    6.6607   -0.7890    0.0000 H   0  0  0  0  0  0  0  0  0  0  0  0
    5.9004    1.0376    0.0000 H   0  0  0  0  0  0  0  0  0  0  0  0
    5.3071    0.5053    0.0000 H   0  0  0  0  0  0  0  0  0  0  0  0
    6.3815   -2.6889    0.0000 H   0  0  0  0  0  0  0  0  0  0  0  0
    6.9200    0.0045    0.0000 H   0  0  0  0  0  0  0  0  0  0  0  0
    7.5132    0.5368    0.0000 H   0  0  0  0  0  0  0  0  0  0  0  0
    7.1895    2.1943    0.0000 H   0  0  0  0  0  0  0  0  0  0  0  0
    6.5963    1.6620    0.0000 H   0  0  0  0  0  0  0  0  0  0  0  0
    4.8709   -5.5830    0.0000 H   0  0  0  0  0  0  0  0  0  0  0  0
    2.8660   -2.5689    0.0000 H   0  0  0  0  0  0  0  0  0  0  0  0
    2.8660   -5.8089    0.0000 H   0  0  0  0  0  0  0  0  0  0  0  0
    1.4631   -3.3789    0.0000 H   0  0  0  0  0  0  0  0  0  0  0  0
    1.4631   -4.9989    0.0000 H   0  0  0  0  0  0  0  0  0  0  0  0
    7.2247    3.3478    0.0000 H   0  0  0  0  0  0  0  0  0  0  0  0
    9.8918    2.4761    0.0000 H   0  0  0  0  0  0  0  0  0  0  0  0
    7.7280    4.8877    0.0000 H   0  0  0  0  0  0  0  0  0  0  0  0
   10.3951    4.0160    0.0000 H   0  0  0  0  0  0  0  0  0  0  0  0
  1 28  1  0  0  0  0
  2 16  2  0  0  0  0
  3 19  2  0  0  0  0
  4  7  1  0  0  0  0
  4  9  1  0  0  0  0
  4 11  1  0  0  0  0
  5 10  1  0  0  0  0
  5 14  1  0  0  0  0
  5 16  1  0  0  0  0
  6 16  1  0  0  0  0
  6 17  1  0  0  0  0
  6 42  1  0  0  0  0
  7  8  1  0  0  0  0
  7 29  1  0  0  0  0
  7 30  1  0  0  0  0
  8 10  1  0  0  0  0
  8 31  1  0  0  0  0
  8 32  1  0  0  0  0
  9 12  1  0  0  0  0
  9 33  1  0  0  0  0
  9 34  1  0  0  0  0
 10 12  2  0  0  0  0
 11 13  1  0  0  0  0
 11 35  1  0  0  0  0
 11 36  1  0  0  0  0
 12 37  1  0  0  0  0
 13 15  1  0  0  0  0
 13 38  1  0  0  0  0
 13 39  1  0  0  0  0
 14 17  1  0  0  0  0
 14 18  2  0  0  0  0
 15 19  1  0  0  0  0
 15 40  1  0  0  0  0
 15 41  1  0  0  0  0
 17 20  2  0  0  0  0
 18 21  1  0  0  0  0
 18 43  1  0  0  0  0
 19 23  1  0  0  0  0
 20 22  1  0  0  0  0
 20 44  1  0  0  0  0
 21 22  2  0  0  0  0
 21 45  1  0  0  0  0
 22 46  1  0  0  0  0
 23 24  2  0  0  0  0
 23 25  1  0  0  0  0
 24 26  1  0  0  0  0
 24 47  1  0  0  0  0
 25 27  2  0  0  0  0
 25 48  1  0  0  0  0
 26 28  2  0  0  0  0
 26 49  1  0  0  0  0
 27 28  1  0  0  0  0
 27 50  1  0  0  0  0
M  END
> <PUBCHEM_COMPOUND_CID>
3168

> <PUBCHEM_COMPOUND_CANONICALIZED>
1

> <PUBCHEM_CACTVS_COMPLEXITY>
615

> <PUBCHEM_CACTVS_HBOND_ACCEPTOR>
4

> <PUBCHEM_CACTVS_HBOND_DONOR>
1

> <PUBCHEM_CACTVS_ROTATABLE_BOND>
6

> <PUBCHEM_CACTVS_SUBSKEYS>
AAADceB7MQAAAAAAAAAAAAAAAAAAAWAAAAAwYIAAAAAAAFgBQAAAHwAQAAAADAzBmAwxwIPAAACIAqRSUACCAAAlAgAIiAEIdMiIYDLA1ZGUIQholALIyacciICOAAAAAAAAACAAAAAAAAAAQAAAAAAAAA==

> <PUBCHEM_IUPAC_OPENEYE_NAME>
3-[1-[4-(4-fluorophenyl)-4-oxo-butyl]-3,6-dihydro-2H-pyridin-4-yl]-1H-benzimidazol-2-one

> <PUBCHEM_IUPAC_CAS_NAME>
3-[1-[4-(4-fluorophenyl)-4-oxobutyl]-3,6-dihydro-2H-pyridin-4-yl]-1H-benzimidazol-2-one

> <PUBCHEM_IUPAC_NAME_MARKUP>
3-[1-[4-(4-fluorophenyl)-4-oxobutyl]-3,6-dihydro-2<I>H</I>-pyridin-4-yl]-1<I>H</I>-benzimidazol-2-one

> <PUBCHEM_IUPAC_NAME>
3-[1-[4-(4-fluorophenyl)-4-oxobutyl]-3,6-dihydro-2H-pyridin-4-yl]-1H-benzimidazol-2-one

> <PUBCHEM_IUPAC_SYSTEMATIC_NAME>
3-[1-[4-(4-fluorophenyl)-4-oxidanylidene-butyl]-3,6-dihydro-2H-pyridin-4-yl]-1H-benzimidazol-2-one

> <PUBCHEM_IUPAC_TRADITIONAL_NAME>
3-[1-[4-(4-fluorophenyl)-4-keto-butyl]-3,6-dihydro-2H-pyridin-4-yl]-1H-benzimidazol-2-one

> <PUBCHEM_IUPAC_INCHI>
InChI=1S/C22H22FN3O2/c23-17-9-7-16(8-10-17)21(27)6-3-13-25-14-11-18(12-15-25)26-20-5-2-1-4-19(20)24-22(26)28/h1-2,4-5,7-11H,3,6,12-15H2,(H,24,28)

> <PUBCHEM_IUPAC_INCHIKEY>
RMEDXOLNCUSCGS-UHFFFAOYSA-N

> <PUBCHEM_XLOGP3>
3.5

> <PUBCHEM_EXACT_MASS>
379.16960512

> <PUBCHEM_MOLECULAR_FORMULA>
C22H22FN3O2

> <PUBCHEM_MOLECULAR_WEIGHT>
379.4

> <PUBCHEM_SMILES>
C1CN(CC=C1N2C3=CC=CC=C3NC2=O)CCCC(=O)C4=CC=C(C=C4)F

> <PUBCHEM_CONNECTIVITY_SMILES>
C1CN(CC=C1N2C3=CC=CC=C3NC2=O)CCCC(=O)C4=CC=C(C=C4)F

> <PUBCHEM_CACTVS_TPSA>
52.7

> <PUBCHEM_MONOISOTOPIC_WEIGHT>
379.16960512

> <PUBCHEM_TOTAL_CHARGE>
0

> <PUBCHEM_HEAVY_ATOM_COUNT>
28

> <PUBCHEM_ATOM_DEF_STEREO_COUNT>
0

> <PUBCHEM_ATOM_UDEF_STEREO_COUNT>
0

> <PUBCHEM_BOND_DEF_STEREO_COUNT>
0

> <PUBCHEM_BOND_UDEF_STEREO_COUNT>
0

> <PUBCHEM_ISOTOPIC_ATOM_COUNT>
0

> <PUBCHEM_COMPONENT_COUNT>
1

> <PUBCHEM_CACTVS_TAUTO_COUNT>
-1

> <PUBCHEM_COORDINATE_TYPE>
1
5
255

> <PUBCHEM_BONDANNOTATIONS>
14  17  8
14  18  8
17  20  8
18  21  8
20  22  8
21  22  8
23  24  8
23  25  8
24  26  8
25  27  8
26  28  8
27  28  8
5  14  8
5  16  8
6  16  8
6  17  8

$$$$
5073
  -OEChem-08112611002D

 57 61  0     0  0  0  0  0  0999 V2000
   14.5715   -0.1446    0.0000 F   0  0  0  0  0  0  0  0  0  0  0  0
   11.8031   -2.3663    0.0000 O   0  0  0  0  0  0  0  0  0  0  0  0
    4.6660   -0.6684    0.0000 O   0  0  0  0  0  0  0  0  0  0  0  0
    8.1301    0.3316    0.0000 N   0  0  0  0  0  0  0  0  0  0  0  0
    3.8000    0.8316    0.0000 N   0  0  0  0  0  0  0  0  0  0  0  0
   10.8313   -2.1571    0.0000 N   0  0  0  0  0  0  0  0  0  0  0  0
    4.6660    2.3316    0.0000 N   0  0  0  0  0  0  0  0  0  0  0  0
    9.8622   -0.6684    0.0000 C   0  0  0  0  0  0  0  0  0  0  0  0
    9.8622    0.3316    0.0000 C   0  0  0  0  0  0  0  0  0  0  0  0
    8.9962   -1.1684    0.0000 C   0  0  0  0  0  0  0  0  0  0  0  0
    8.9962    0.8316    0.0000 C   0  0  0  0  0  0  0  0  0  0  0  0
    8.1301   -0.6684    0.0000 C   0  0  0  0  0  0  0  0  0  0  0  0
    7.2641    0.8316    0.0000 C   0  0  0  0  0  0  0  0  0  0  0  0
   10.7282   -1.1684    0.0000 C   0  0  0  0  0  0  0  0  0  0  0  0
    6.3981    0.3316    0.0000 C   0  0  0  0  0  0  0  0  0  0  0  0
    5.5321    0.8316    0.0000 C   0  0  0  0  0  0  0  0  0  0  0  0
   11.6360   -0.7633    0.0000 C   0  0  0  0  0  0  0  0  0  0  0  0
    2.9061    0.2970    0.0000 C   0  0  0  0  0  0  0  0  0  0  0  0
    2.0000    0.8108    0.0000 C   0  0  0  0  0  0  0  0  0  0  0  0
    3.8000    1.8316    0.0000 C   0  0  0  0  0  0  0  0  0  0  0  0
    2.0000    1.8525    0.0000 C   0  0  0  0  0  0  0  0  0  0  0  0
    2.9061    2.3663    0.0000 C   0  0  0  0  0  0  0  0  0  0  0  0
    4.6660    0.3316    0.0000 C   0  0  0  0  0  0  0  0  0  0  0  0
    5.5321    1.8316    0.0000 C   0  0  0  0  0  0  0  0  0  0  0  0
   12.3038   -1.5076    0.0000 C   0  0  0  0  0  0  0  0  0  0  0  0
   11.9467    0.1873    0.0000 C   0  0  0  0  0  0  0  0  0  0  0  0
    6.3981    2.3316    0.0000 C   0  0  0  0  0  0  0  0  0  0  0  0
   13.2823   -1.3013    0.0000 C   0  0  0  0  0  0  0  0  0  0  0  0
   12.9252    0.3935    0.0000 C   0  0  0  0  0  0  0  0  0  0  0  0
   13.5930   -0.3508    0.0000 C   0  0  0  0  0  0  0  0  0  0  0  0
    9.8622   -1.2884    0.0000 H   0  0  0  0  0  0  0  0  0  0  0  0
   10.4728    0.2240    0.0000 H   0  0  0  0  0  0  0  0  0  0  0  0
   10.0742    0.9142    0.0000 H   0  0  0  0  0  0  0  0  0  0  0  0
    8.5976   -1.6433    0.0000 H   0  0  0  0  0  0  0  0  0  0  0  0
    9.3947   -1.6433    0.0000 H   0  0  0  0  0  0  0  0  0  0  0  0
    9.3947    1.3066    0.0000 H   0  0  0  0  0  0  0  0  0  0  0  0
    8.5976    1.3066    0.0000 H   0  0  0  0  0  0  0  0  0  0  0  0
    7.5196   -0.5607    0.0000 H   0  0  0  0  0  0  0  0  0  0  0  0
    7.9181   -1.2510    0.0000 H   0  0  0  0  0  0  0  0  0  0  0  0
    7.6626    1.3066    0.0000 H   0  0  0  0  0  0  0  0  0  0  0  0
    6.8656    1.3066    0.0000 H   0  0  0  0  0  0  0  0  0  0  0  0
    5.9996   -0.1433    0.0000 H   0  0  0  0  0  0  0  0  0  0  0  0
    6.7966   -0.1433    0.0000 H   0  0  0  0  0  0  0  0  0  0  0  0
    2.5124   -0.1820    0.0000 H   0  0  0  0  0  0  0  0  0  0  0  0
    3.3107   -0.1728    0.0000 H   0  0  0  0  0  0  0  0  0  0  0  0
    1.3891    0.9169    0.0000 H   0  0  0  0  0  0  0  0  0  0  0  0
    1.7909    0.2271    0.0000 H   0  0  0  0  0  0  0  0  0  0  0  0
    1.7909    2.4361    0.0000 H   0  0  0  0  0  0  0  0  0  0  0  0
    1.3891    1.7464    0.0000 H   0  0  0  0  0  0  0  0  0  0  0  0
    3.3107    2.8361    0.0000 H   0  0  0  0  0  0  0  0  0  0  0  0
    2.5124    2.8453    0.0000 H   0  0  0  0  0  0  0  0  0  0  0  0
   11.5326    0.6487    0.0000 H   0  0  0  0  0  0  0  0  0  0  0  0
    6.7081    1.7947    0.0000 H   0  0  0  0  0  0  0  0  0  0  0  0
    6.9350    2.6416    0.0000 H   0  0  0  0  0  0  0  0  0  0  0  0
    6.0881    2.8686    0.0000 H   0  0  0  0  0  0  0  0  0  0  0  0
   13.6964   -1.7628    0.0000 H   0  0  0  0  0  0  0  0  0  0  0  0
   13.1178    0.9828    0.0000 H   0  0  0  0  0  0  0  0  0  0  0  0
  1 30  1  0  0  0  0
  2  6  1  0  0  0  0
  2 25  1  0  0  0  0
  3 23  2  0  0  0  0
  4 11  1  0  0  0  0
  4 12  1  0  0  0  0
  4 13  1  0  0  0  0
  5 18  1  0  0  0  0
  5 20  1  0  0  0  0
  5 23  1  0  0  0  0
  6 14  2  0  0  0  0
  7 20  2  0  0  0  0
  7 24  1  0  0  0  0
  8  9  1  0  0  0  0
  8 10  1  0  0  0  0
  8 14  1  0  0  0  0
  8 31  1  0  0  0  0
  9 11  1  0  0  0  0
  9 32  1  0  0  0  0
  9 33  1  0  0  0  0
 10 12  1  0  0  0  0
 10 34  1  0  0  0  0
 10 35  1  0  0  0  0
 11 36  1  0  0  0  0
 11 37  1  0  0  0  0
 12 38  1  0  0  0  0
 12 39  1  0  0  0  0
 13 15  1  0  0  0  0
 13 40  1  0  0  0  0
 13 41  1  0  0  0  0
 14 17  1  0  0  0  0
 15 16  1  0  0  0  0
 15 42  1  0  0  0  0
 15 43  1  0  0  0  0
 16 23  1  0  0  0  0
 16 24  2  0  0  0  0
 17 25  2  0  0  0  0
 17 26  1  0  0  0  0
 18 19  1  0  0  0  0
 18 44  1  0  0  0  0
 18 45  1  0  0  0  0
 19 21  1  0  0  0  0
 19 46  1  0  0  0  0
 19 47  1  0  0  0  0
 20 22  1  0  0  0  0
 21 22  1  0  0  0  0
 21 48  1  0  0  0  0
 21 49  1  0  0  0  0
 22 50  1  0  0  0  0
 22 51  1  0  0  0  0
 24 27  1  0  0  0  0
 25 28  1  0  0  0  0
 26 29  2  0  0  0  0
 26 52  1  0  0  0  0
 27 53  1  0  0  0  0
 27 54  1  0  0  0  0
 27 55  1  0  0  0  0
 28 30  2  0  0  0  0
 28 56  1  0  0  0  0
 29 30  1  0  0  0  0
 29 57  1  0  0  0  0
M  END
> <PUBCHEM_COMPOUND_CID>
5073

> <PUBCHEM_COMPOUND_CANONICALIZED>
1

> <PUBCHEM_CACTVS_COMPLEXITY>
731

> <PUBCHEM_CACTVS_HBOND_ACCEPTOR>
6

> <PUBCHEM_CACTVS_HBOND_DONOR>
0

> <PUBCHEM_CACTVS_ROTATABLE_BOND>
4

> <PUBCHEM_CACTVS_SUBSKEYS>
AAADceB7sQAAAAAAAAAAAAAAAAAAAWAAAAA8WIEAAAAAAFiB8AAAHwAEAAAADQzBngwzhtMQAACpA6dydgCCAAEkIAApmCE+TNoIJrqAnZOEMYBmxhmIycecyOCOAAAAAAAIAAAAAAAAABAAAAAAAAAAAA==

> <PUBCHEM_IUPAC_OPENEYE_NAME>
3-[2-[4-(6-fluoro-1,2-benzoxazol-3-yl)-1-piperidyl]ethyl]-2-methyl-6,7,8,9-tetrahydropyrido[1,2-a]pyrimidin-4-one

> <PUBCHEM_IUPAC_CAS_NAME>
3-[2-[4-(6-fluoro-1,2-benzoxazol-3-yl)-1-piperidinyl]ethyl]-2-methyl-6,7,8,9-tetrahydropyrido[1,2-a]pyrimidin-4-one

> <PUBCHEM_IUPAC_NAME_MARKUP>
3-[2-[4-(6-fluoro-1,2-benzoxazol-3-yl)piperidin-1-yl]ethyl]-2-methyl-6,7,8,9-tetrahydropyrido[1,2-a]pyrimidin-4-one

> <PUBCHEM_IUPAC_NAME>
3-[2-[4-(6-fluoro-1,2-benzoxazol-3-yl)piperidin-1-yl]ethyl]-2-methyl-6,7,8,9-tetrahydropyrido[1,2-a]pyrimidin-4-one

> <PUBCHEM_IUPAC_SYSTEMATIC_NAME>
3-[2-[4-(6-fluoranyl-1,2-benzoxazol-3-yl)piperidin-1-yl]ethyl]-2-methyl-6,7,8,9-tetrahydropyrido[1,2-a]pyrimidin-4-one

> <PUBCHEM_IUPAC_TRADITIONAL_NAME>
3-[2-[4-(6-fluoroindoxazen-3-yl)piperidino]ethyl]-2-methyl-6,7,8,9-tetrahydropyrido[1,2-a]pyrimidin-4-one

> <PUBCHEM_IUPAC_INCHI>
InChI=1S/C23H27FN4O2/c1-15-18(23(29)28-10-3-2-4-21(28)25-15)9-13-27-11-7-16(8-12-27)22-19-6-5-17(24)14-20(19)30-26-22/h5-6,14,16H,2-4,7-13H2,1H3

> <PUBCHEM_IUPAC_INCHIKEY>
RAPZEAPATHNIPO-UHFFFAOYSA-N

> <PUBCHEM_XLOGP3_AA>
2.7

> <PUBCHEM_EXACT_MASS>
410.21180428

> <PUBCHEM_MOLECULAR_FORMULA>
C23H27FN4O2

> <PUBCHEM_MOLECULAR_WEIGHT>
410.5

> <PUBCHEM_SMILES>
CC1=C(C(=O)N2CCCCC2=N1)CCN3CCC(CC3)C4=NOC5=C4C=CC(=C5)F

> <PUBCHEM_CONNECTIVITY_SMILES>
CC1=C(C(=O)N2CCCCC2=N1)CCN3CCC(CC3)C4=NOC5=C4C=CC(=C5)F

> <PUBCHEM_CACTVS_TPSA>
61.9

> <PUBCHEM_MONOISOTOPIC_WEIGHT>
410.21180428

> <PUBCHEM_TOTAL_CHARGE>
0

> <PUBCHEM_HEAVY_ATOM_COUNT>
30

> <PUBCHEM_ATOM_DEF_STEREO_COUNT>
0

> <PUBCHEM_ATOM_UDEF_STEREO_COUNT>
0

> <PUBCHEM_BOND_DEF_STEREO_COUNT>
0

> <PUBCHEM_BOND_UDEF_STEREO_COUNT>
0

> <PUBCHEM_ISOTOPIC_ATOM_COUNT>
0

> <PUBCHEM_COMPONENT_COUNT>
1

> <PUBCHEM_CACTVS_TAUTO_COUNT>
-1

> <PUBCHEM_COORDINATE_TYPE>
1
5
255

> <PUBCHEM_BONDANNOTATIONS>
14  17  8
16  23  8
16  24  8
17  25  8
17  26  8
2  25  8
2  6  8
25  28  8
26  29  8
28  30  8
29  30  8
5  20  8
5  23  8
6  14  8
7  20  8
7  24  8

$$$$
135398745
  -OEChem-08112611012D

 42 45  0     0  0  0  0  0  0999 V2000
    3.7230   -2.6610    0.0000 S   0  0  0  0  0  0  0  0  0  0  0  0
    4.5448    0.5044    0.0000 N   0  0  0  0  0  0  0  0  0  0  0  0
    3.6770    2.3063    0.0000 N   0  0  0  0  0  0  0  0  0  0  0  0
    5.9786   -0.3966    0.0000 N   0  0  0  0  0  0  0  0  0  0  0  0
    5.4786   -2.5873    0.0000 N   0  0  0  0  0  0  0  0  0  0  0  0
    5.1081    1.3306    0.0000 C   0  0  0  0  0  0  0  0  0  0  0  0
    3.5476    0.5791    0.0000 C   0  0  0  0  0  0  0  0  0  0  0  0
    4.6742    2.2316    0.0000 C   0  0  0  0  0  0  0  0  0  0  0  0
    3.1137    1.4801    0.0000 C   0  0  0  0  0  0  0  0  0  0  0  0
    4.9786   -0.3966    0.0000 C   0  0  0  0  0  0  0  0  0  0  0  0
    4.3552   -1.1785    0.0000 C   0  0  0  0  0  0  0  0  0  0  0  0
    3.2431    3.2073    0.0000 C   0  0  0  0  0  0  0  0  0  0  0  0
    4.5777   -2.1534    0.0000 C   0  0  0  0  0  0  0  0  0  0  0  0
    3.3648   -1.0919    0.0000 C   0  0  0  0  0  0  0  0  0  0  0  0
    6.6021   -1.1785    0.0000 C   0  0  0  0  0  0  0  0  0  0  0  0
    6.3796   -2.1534    0.0000 C   0  0  0  0  0  0  0  0  0  0  0  0
    2.9749   -2.0063    0.0000 C   0  0  0  0  0  0  0  0  0  0  0  0
    7.5926   -0.8561    0.0000 C   0  0  0  0  0  0  0  0  0  0  0  0
    7.1322   -2.8736    0.0000 C   0  0  0  0  0  0  0  0  0  0  0  0
    2.0000   -2.2288    0.0000 C   0  0  0  0  0  0  0  0  0  0  0  0
    8.3616   -1.5587    0.0000 C   0  0  0  0  0  0  0  0  0  0  0  0
    8.1298   -2.5742    0.0000 C   0  0  0  0  0  0  0  0  0  0  0  0
    5.5519    0.8977    0.0000 H   0  0  0  0  0  0  0  0  0  0  0  0
    5.6115    1.6925    0.0000 H   0  0  0  0  0  0  0  0  0  0  0  0
    2.9507    0.4112    0.0000 H   0  0  0  0  0  0  0  0  0  0  0  0
    3.6093   -0.0378    0.0000 H   0  0  0  0  0  0  0  0  0  0  0  0
    5.2710    2.3995    0.0000 H   0  0  0  0  0  0  0  0  0  0  0  0
    4.6125    2.8485    0.0000 H   0  0  0  0  0  0  0  0  0  0  0  0
    2.6699    1.9130    0.0000 H   0  0  0  0  0  0  0  0  0  0  0  0
    2.6103    1.1181    0.0000 H   0  0  0  0  0  0  0  0  0  0  0  0
    3.8017    3.4763    0.0000 H   0  0  0  0  0  0  0  0  0  0  0  0
    2.9741    3.7659    0.0000 H   0  0  0  0  0  0  0  0  0  0  0  0
    2.6845    2.9383    0.0000 H   0  0  0  0  0  0  0  0  0  0  0  0
    3.0459   -0.5602    0.0000 H   0  0  0  0  0  0  0  0  0  0  0  0
    5.4786   -3.2073    0.0000 H   0  0  0  0  0  0  0  0  0  0  0  0
    7.7236   -0.2501    0.0000 H   0  0  0  0  0  0  0  0  0  0  0  0
    6.9872   -3.4764    0.0000 H   0  0  0  0  0  0  0  0  0  0  0  0
    1.8620   -1.6244    0.0000 H   0  0  0  0  0  0  0  0  0  0  0  0
    1.3955   -2.3668    0.0000 H   0  0  0  0  0  0  0  0  0  0  0  0
    2.1380   -2.8333    0.0000 H   0  0  0  0  0  0  0  0  0  0  0  0
    8.9534   -1.3737    0.0000 H   0  0  0  0  0  0  0  0  0  0  0  0
    8.5827   -2.9977    0.0000 H   0  0  0  0  0  0  0  0  0  0  0  0
  1 13  1  0  0  0  0
  1 17  1  0  0  0  0
  2  6  1  0  0  0  0
  2  7  1  0  0  0  0
  2 10  1  0  0  0  0
  3  8  1  0  0  0  0
  3  9  1  0  0  0  0
  3 12  1  0  0  0  0
  4 10  2  0  0  0  0
  4 15  1  0  0  0  0
  5 13  1  0  0  0  0
  5 16  1  0  0  0  0
  5 35  1  0  0  0  0
  6  8  1  0  0  0  0
  6 23  1  0  0  0  0
  6 24  1  0  0  0  0
  7  9  1  0  0  0  0
  7 25  1  0  0  0  0
  7 26  1  0  0  0  0
  8 27  1  0  0  0  0
  8 28  1  0  0  0  0
  9 29  1  0  0  0  0
  9 30  1  0  0  0  0
 10 11  1  0  0  0  0
 11 13  2  0  0  0  0
 11 14  1  0  0  0  0
 12 31  1  0  0  0  0
 12 32  1  0  0  0  0
 12 33  1  0  0  0  0
 14 17  2  0  0  0  0
 14 34  1  0  0  0  0
 15 16  1  0  0  0  0
 15 18  2  0  0  0  0
 16 19  2  0  0  0  0
 17 20  1  0  0  0  0
 18 21  1  0  0  0  0
 18 36  1  0  0  0  0
 19 22  1  0  0  0  0
 19 37  1  0  0  0  0
 20 38  1  0  0  0  0
 20 39  1  0  0  0  0
 20 40  1  0  0  0  0
 21 22  2  0  0  0  0
 21 41  1  0  0  0  0
 22 42  1  0  0  0  0
M  END
> <PUBCHEM_COMPOUND_CID>
135398745

> <PUBCHEM_COMPOUND_CANONICALIZED>
1

> <PUBCHEM_CACTVS_COMPLEXITY>
432

> <PUBCHEM_CACTVS_HBOND_ACCEPTOR>
4

> <PUBCHEM_CACTVS_HBOND_DONOR>
1

> <PUBCHEM_CACTVS_ROTATABLE_BOND>
1

> <PUBCHEM_CACTVS_SUBSKEYS>
AAADceB7gABAAAAAAAAAAAAAAAAAASAAAAA8QAAABAAAAACBwAAAHAQQAAAADAjBWAQzwYPAAAikAiZiZACDAIFhChlJiBgodJgIYOLg2ZGUIAhgkADoyAcQAAAMAAAAAAAAACAAAAAAAAAAQAAAAAAAAA==

> <PUBCHEM_IUPAC_OPENEYE_NAME>
2-methyl-4-(4-methylpiperazin-1-yl)-10H-thieno[2,3-b][1,5]benzodiazepine

> <PUBCHEM_IUPAC_CAS_NAME>
2-methyl-4-(4-methyl-1-piperazinyl)-10H-thieno[2,3-b][1,5]benzodiazepine

> <PUBCHEM_IUPAC_NAME_MARKUP>
2-methyl-4-(4-methylpiperazin-1-yl)-10<I>H</I>-thieno[2,3-b][1,5]benzodiazepine

> <PUBCHEM_IUPAC_NAME>
2-methyl-4-(4-methylpiperazin-1-yl)-10H-thieno[2,3-b][1,5]benzodiazepine

> <PUBCHEM_IUPAC_SYSTEMATIC_NAME>
2-methyl-4-(4-methylpiperazin-1-yl)-10H-thieno[2,3-b][1,5]benzodiazepine

> <PUBCHEM_IUPAC_TRADITIONAL_NAME>
2-methyl-4-(4-methylpiperazino)-10H-thieno[2,3-b][1,5]benzodiazepine

> <PUBCHEM_IUPAC_INCHI>
InChI=1S/C17H20N4S/c1-12-11-13-16(21-9-7-20(2)8-10-21)18-14-5-3-4-6-15(14)19-17(13)22-12/h3-6,11,19H,7-10H2,1-2H3

> <PUBCHEM_IUPAC_INCHIKEY>
KVWDHTXUZHCGIO-UHFFFAOYSA-N

> <PUBCHEM_XLOGP3_AA>
2.9

> <PUBCHEM_EXACT_MASS>
312.14086783

> <PUBCHEM_MOLECULAR_FORMULA>
C17H20N4S

> <PUBCHEM_MOLECULAR_WEIGHT>
312.4

> <PUBCHEM_SMILES>
CC1=CC2=C(S1)NC3=CC=CC=C3N=C2N4CCN(CC4)C

> <PUBCHEM_CONNECTIVITY_SMILES>
CC1=CC2=C(S1)NC3=CC=CC=C3N=C2N4CCN(CC4)C

> <PUBCHEM_CACTVS_TPSA>
59.1

> <PUBCHEM_MONOISOTOPIC_WEIGHT>
312.14086783

> <PUBCHEM_TOTAL_CHARGE>
0

> <PUBCHEM_HEAVY_ATOM_COUNT>
22

> <PUBCHEM_ATOM_DEF_STEREO_COUNT>
0

> <PUBCHEM_ATOM_UDEF_STEREO_COUNT>
0

> <PUBCHEM_BOND_DEF_STEREO_COUNT>
0

> <PUBCHEM_BOND_UDEF_STEREO_COUNT>
0

> <PUBCHEM_ISOTOPIC_ATOM_COUNT>
0

> <PUBCHEM_COMPONENT_COUNT>
1

> <PUBCHEM_CACTVS_TAUTO_COUNT>
-1

> <PUBCHEM_COORDINATE_TYPE>
1
5
255

> <PUBCHEM_BONDANNOTATIONS>
1  13  8
1  17  8
11  13  8
11  14  8
14  17  8
15  16  8
15  18  8
16  19  8
18  21  8
19  22  8
21  22  8

$$$$
5002
  -OEChem-08112611012D

 52 55  0     0  0  0  0  0  0999 V2000
    4.8830   -5.1737    0.0000 S   0  0  0  0  0  0  0  0  0  0  0  0
    2.7770    2.3480    0.0000 O   0  0  0  0  0  0  0  0  0  0  0  0
    3.4697    4.9014    0.0000 O   0  0  0  0  0  0  0  0  0  0  0  0
    3.0814   -0.2802    0.0000 N   0  0  0  0  0  0  0  0  0  0  0  0
    3.9491   -2.0821    0.0000 N   0  0  0  0  0  0  0  0  0  0  0  0
    5.3830   -2.9831    0.0000 N   0  0  0  0  0  0  0  0  0  0  0  0
    2.5181   -1.1064    0.0000 C   0  0  0  0  0  0  0  0  0  0  0  0
    4.0786   -0.3549    0.0000 C   0  0  0  0  0  0  0  0  0  0  0  0
    2.9519   -2.0074    0.0000 C   0  0  0  0  0  0  0  0  0  0  0  0
    4.5125   -1.2559    0.0000 C   0  0  0  0  0  0  0  0  0  0  0  0
    2.6475    0.6208    0.0000 C   0  0  0  0  0  0  0  0  0  0  0  0
    4.3830   -2.9831    0.0000 C   0  0  0  0  0  0  0  0  0  0  0  0
    3.2108    1.4470    0.0000 C   0  0  0  0  0  0  0  0  0  0  0  0
    3.7595   -3.7649    0.0000 C   0  0  0  0  0  0  0  0  0  0  0  0
    3.9820   -4.7399    0.0000 C   0  0  0  0  0  0  0  0  0  0  0  0
    2.7690   -3.4426    0.0000 C   0  0  0  0  0  0  0  0  0  0  0  0
    6.0065   -3.7649    0.0000 C   0  0  0  0  0  0  0  0  0  0  0  0
    5.7840   -4.7399    0.0000 C   0  0  0  0  0  0  0  0  0  0  0  0
    3.2295   -5.4600    0.0000 C   0  0  0  0  0  0  0  0  0  0  0  0
    3.3403    3.1742    0.0000 C   0  0  0  0  0  0  0  0  0  0  0  0
    2.0000   -4.1452    0.0000 C   0  0  0  0  0  0  0  0  0  0  0  0
    2.2318   -5.1607    0.0000 C   0  0  0  0  0  0  0  0  0  0  0  0
    6.9970   -3.4426    0.0000 C   0  0  0  0  0  0  0  0  0  0  0  0
    6.5365   -5.4601    0.0000 C   0  0  0  0  0  0  0  0  0  0  0  0
    2.9064    4.0752    0.0000 C   0  0  0  0  0  0  0  0  0  0  0  0
    7.7660   -4.1452    0.0000 C   0  0  0  0  0  0  0  0  0  0  0  0
    7.5342   -5.1607    0.0000 C   0  0  0  0  0  0  0  0  0  0  0  0
    2.0742   -0.6735    0.0000 H   0  0  0  0  0  0  0  0  0  0  0  0
    2.0147   -1.4683    0.0000 H   0  0  0  0  0  0  0  0  0  0  0  0
    4.6754   -0.1870    0.0000 H   0  0  0  0  0  0  0  0  0  0  0  0
    4.0169    0.2620    0.0000 H   0  0  0  0  0  0  0  0  0  0  0  0
    2.3551   -2.1753    0.0000 H   0  0  0  0  0  0  0  0  0  0  0  0
    3.0137   -2.6243    0.0000 H   0  0  0  0  0  0  0  0  0  0  0  0
    4.9563   -1.6888    0.0000 H   0  0  0  0  0  0  0  0  0  0  0  0
    5.0159   -0.8940    0.0000 H   0  0  0  0  0  0  0  0  0  0  0  0
    2.2037    1.0537    0.0000 H   0  0  0  0  0  0  0  0  0  0  0  0
    2.1441    0.2589    0.0000 H   0  0  0  0  0  0  0  0  0  0  0  0
    3.6547    1.0141    0.0000 H   0  0  0  0  0  0  0  0  0  0  0  0
    3.7142    1.8090    0.0000 H   0  0  0  0  0  0  0  0  0  0  0  0
    2.6381   -2.8366    0.0000 H   0  0  0  0  0  0  0  0  0  0  0  0
    3.3744   -6.0628    0.0000 H   0  0  0  0  0  0  0  0  0  0  0  0
    3.7841    2.7413    0.0000 H   0  0  0  0  0  0  0  0  0  0  0  0
    3.8437    3.5362    0.0000 H   0  0  0  0  0  0  0  0  0  0  0  0
    1.4083   -3.9601    0.0000 H   0  0  0  0  0  0  0  0  0  0  0  0
    1.7789   -5.5841    0.0000 H   0  0  0  0  0  0  0  0  0  0  0  0
    7.1280   -2.8366    0.0000 H   0  0  0  0  0  0  0  0  0  0  0  0
    6.3916   -6.0629    0.0000 H   0  0  0  0  0  0  0  0  0  0  0  0
    2.4626    4.5081    0.0000 H   0  0  0  0  0  0  0  0  0  0  0  0
    2.4030    3.7133    0.0000 H   0  0  0  0  0  0  0  0  0  0  0  0
    8.3578   -3.9602    0.0000 H   0  0  0  0  0  0  0  0  0  0  0  0
    7.9871   -5.5842    0.0000 H   0  0  0  0  0  0  0  0  0  0  0  0
    3.2007    5.4601    0.0000 H   0  0  0  0  0  0  0  0  0  0  0  0
  1 15  1  0  0  0  0
  1 18  1  0  0  0  0
  2 13  1  0  0  0  0
  2 20  1  0  0  0  0
  3 25  1  0  0  0  0
  3 52  1  0  0  0  0
  4  7  1  0  0  0  0
  4  8  1  0  0  0  0
  4 11  1  0  0  0  0
  5  9  1  0  0  0  0
  5 10  1  0  0  0  0
  5 12  1  0  0  0  0
  6 12  2  0  0  0  0
  6 17  1  0  0  0  0
  7  9  1  0  0  0  0
  7 28  1  0  0  0  0
  7 29  1  0  0  0  0
  8 10  1  0  0  0  0
  8 30  1  0  0  0  0
  8 31  1  0  0  0  0
  9 32  1  0  0  0  0
  9 33  1  0  0  0  0
 10 34  1  0  0  0  0
 10 35  1  0  0  0  0
 11 13  1  0  0  0  0
 11 36  1  0  0  0  0
 11 37  1  0  0  0  0
 12 14  1  0  0  0  0
 13 38  1  0  0  0  0
 13 39  1  0  0  0  0
 14 15  1  0  0  0  0
 14 16  2  0  0  0  0
 15 19  2  0  0  0  0
 16 21  1  0  0  0  0
 16 40  1  0  0  0  0
 17 18  1  0  0  0  0
 17 23  2  0  0  0  0
 18 24  2  0  0  0  0
 19 22  1  0  0  0  0
 19 41  1  0  0  0  0
 20 25  1  0  0  0  0
 20 42  1  0  0  0  0
 20 43  1  0  0  0  0
 21 22  2  0  0  0  0
 21 44  1  0  0  0  0
 22 45  1  0  0  0  0
 23 26  1  0  0  0  0
 23 46  1  0  0  0  0
 24 27  1  0  0  0  0
 24 47  1  0  0  0  0
 25 48  1  0  0  0  0
 25 49  1  0  0  0  0
 26 27  2  0  0  0  0
 26 50  1  0  0  0  0
 27 51  1  0  0  0  0
M  END
> <PUBCHEM_COMPOUND_CID>
5002

> <PUBCHEM_COMPOUND_CANONICALIZED>
1

> <PUBCHEM_CACTVS_COMPLEXITY>
496

> <PUBCHEM_CACTVS_HBOND_ACCEPTOR>
5

> <PUBCHEM_CACTVS_HBOND_DONOR>
1

> <PUBCHEM_CACTVS_ROTATABLE_BOND>
6

> <PUBCHEM_CACTVS_SUBSKEYS>
AAADceB7MABAAAAAAAAAAAAAAAAAAAAAAAA8YIAABAAAAAABQAAAHgQACAAADAjh2AYxwYMABgigAiZiZACCAAEgChAJiBwoZJgLcKKgmZGXIAhggAC7yAcQgAAOAAAAAAAEAQAAAAAAAAgCAAAAAAAAAA==

> <PUBCHEM_IUPAC_OPENEYE_NAME>
2-[2-(4-benzo[b][1,4]benzothiazepin-6-ylpiperazin-1-yl)ethoxy]ethanol

> <PUBCHEM_IUPAC_CAS_NAME>
2-[2-[4-(6-benzo[b][1,4]benzothiazepinyl)-1-piperazinyl]ethoxy]ethanol

> <PUBCHEM_IUPAC_NAME_MARKUP>
2-[2-(4-benzo[b][1,4]benzothiazepin-6-ylpiperazin-1-yl)ethoxy]ethanol

> <PUBCHEM_IUPAC_NAME>
2-[2-(4-benzo[b][1,4]benzothiazepin-6-ylpiperazin-1-yl)ethoxy]ethanol

> <PUBCHEM_IUPAC_SYSTEMATIC_NAME>
2-[2-(4-benzo[b][1,4]benzothiazepin-6-ylpiperazin-1-yl)ethoxy]ethanol

> <PUBCHEM_IUPAC_TRADITIONAL_NAME>
2-[2-(4-benzo[b][1,4]benzothiazepin-6-ylpiperazino)ethoxy]ethanol

> <PUBCHEM_IUPAC_INCHI>
InChI=1S/C21H25N3O2S/c25-14-16-26-15-13-23-9-11-24(12-10-23)21-17-5-1-3-7-19(17)27-20-8-4-2-6-18(20)22-21/h1-8,25H,9-16H2

> <PUBCHEM_IUPAC_INCHIKEY>
URKOMYMAXPYINW-UHFFFAOYSA-N

> <PUBCHEM_XLOGP3_AA>
2.1

> <PUBCHEM_EXACT_MASS>
383.16674822

> <PUBCHEM_MOLECULAR_FORMULA>
C21H25N3O2S

> <PUBCHEM_MOLECULAR_WEIGHT>
383.5

> <PUBCHEM_SMILES>
C1CN(CCN1CCOCCO)C2=NC3=CC=CC=C3SC4=CC=CC=C42

> <PUBCHEM_CONNECTIVITY_SMILES>
C1CN(CCN1CCOCCO)C2=NC3=CC=CC=C3SC4=CC=CC=C42

> <PUBCHEM_CACTVS_TPSA>
73.6

> <PUBCHEM_MONOISOTOPIC_WEIGHT>
383.16674822

> <PUBCHEM_TOTAL_CHARGE>
0

> <PUBCHEM_HEAVY_ATOM_COUNT>
27

> <PUBCHEM_ATOM_DEF_STEREO_COUNT>
0

> <PUBCHEM_ATOM_UDEF_STEREO_COUNT>
0

> <PUBCHEM_BOND_DEF_STEREO_COUNT>
0

> <PUBCHEM_BOND_UDEF_STEREO_COUNT>
0

> <PUBCHEM_ISOTOPIC_ATOM_COUNT>
0

> <PUBCHEM_COMPONENT_COUNT>
1

> <PUBCHEM_CACTVS_TAUTO_COUNT>
-1

> <PUBCHEM_COORDINATE_TYPE>
1
5
255

> <PUBCHEM_BONDANNOTATIONS>
14  15  8
14  16  8
15  19  8
16  21  8
17  18  8
17  23  8
18  24  8
19  22  8
21  22  8
23  26  8
24  27  8
26  27  8

$$$$
135398737
  -OEChem-08112611012D

 42 45  0     0  0  0  0  0  0999 V2000
    8.7204   -1.2603    0.0000 Cl  0  0  0  0  0  0  0  0  0  0  0  0
    3.9491    0.5044    0.0000 N   0  0  0  0  0  0  0  0  0  0  0  0
    3.0814    2.3063    0.0000 N   0  0  0  0  0  0  0  0  0  0  0  0
    5.3830   -0.3966    0.0000 N   0  0  0  0  0  0  0  0  0  0  0  0
    4.8830   -2.5873    0.0000 N   0  0  0  0  0  0  0  0  0  0  0  0
    4.5125    1.3306    0.0000 C   0  0  0  0  0  0  0  0  0  0  0  0
    2.9519    0.5791    0.0000 C   0  0  0  0  0  0  0  0  0  0  0  0
    4.0786    2.2316    0.0000 C   0  0  0  0  0  0  0  0  0  0  0  0
    2.5181    1.4801    0.0000 C   0  0  0  0  0  0  0  0  0  0  0  0
    4.3830   -0.3966    0.0000 C   0  0  0  0  0  0  0  0  0  0  0  0
    3.7595   -1.1785    0.0000 C   0  0  0  0  0  0  0  0  0  0  0  0
    2.6475    3.2073    0.0000 C   0  0  0  0  0  0  0  0  0  0  0  0
    3.9820   -2.1534    0.0000 C   0  0  0  0  0  0  0  0  0  0  0  0
    6.0065   -1.1785    0.0000 C   0  0  0  0  0  0  0  0  0  0  0  0
    5.7840   -2.1534    0.0000 C   0  0  0  0  0  0  0  0  0  0  0  0
    2.7690   -0.8561    0.0000 C   0  0  0  0  0  0  0  0  0  0  0  0
    3.2295   -2.8736    0.0000 C   0  0  0  0  0  0  0  0  0  0  0  0
    2.0000   -1.5587    0.0000 C   0  0  0  0  0  0  0  0  0  0  0  0
    6.9970   -0.8561    0.0000 C   0  0  0  0  0  0  0  0  0  0  0  0
    2.2318   -2.5742    0.0000 C   0  0  0  0  0  0  0  0  0  0  0  0
    6.5365   -2.8736    0.0000 C   0  0  0  0  0  0  0  0  0  0  0  0
    7.7660   -1.5587    0.0000 C   0  0  0  0  0  0  0  0  0  0  0  0
    7.5342   -2.5742    0.0000 C   0  0  0  0  0  0  0  0  0  0  0  0
    4.9563    0.8977    0.0000 H   0  0  0  0  0  0  0  0  0  0  0  0
    5.0159    1.6925    0.0000 H   0  0  0  0  0  0  0  0  0  0  0  0
    2.3551    0.4112    0.0000 H   0  0  0  0  0  0  0  0  0  0  0  0
    3.0137   -0.0378    0.0000 H   0  0  0  0  0  0  0  0  0  0  0  0
    4.6754    2.3995    0.0000 H   0  0  0  0  0  0  0  0  0  0  0  0
    4.0169    2.8485    0.0000 H   0  0  0  0  0  0  0  0  0  0  0  0
    2.0742    1.9130    0.0000 H   0  0  0  0  0  0  0  0  0  0  0  0
    2.0147    1.1181    0.0000 H   0  0  0  0  0  0  0  0  0  0  0  0
    3.2061    3.4763    0.0000 H   0  0  0  0  0  0  0  0  0  0  0  0
    2.3785    3.7659    0.0000 H   0  0  0  0  0  0  0  0  0  0  0  0
    2.0889    2.9383    0.0000 H   0  0  0  0  0  0  0  0  0  0  0  0
    2.6381   -0.2501    0.0000 H   0  0  0  0  0  0  0  0  0  0  0  0
    4.8830   -3.2073    0.0000 H   0  0  0  0  0  0  0  0  0  0  0  0
    3.3744   -3.4764    0.0000 H   0  0  0  0  0  0  0  0  0  0  0  0
    1.4083   -1.3737    0.0000 H   0  0  0  0  0  0  0  0  0  0  0  0
    7.1280   -0.2501    0.0000 H   0  0  0  0  0  0  0  0  0  0  0  0
    1.7789   -2.9977    0.0000 H   0  0  0  0  0  0  0  0  0  0  0  0
    6.3916   -3.4764    0.0000 H   0  0  0  0  0  0  0  0  0  0  0  0
    7.9871   -2.9977    0.0000 H   0  0  0  0  0  0  0  0  0  0  0  0
  1 22  1  0  0  0  0
  2  6  1  0  0  0  0
  2  7  1  0  0  0  0
  2 10  1  0  0  0  0
  3  8  1  0  0  0  0
  3  9  1  0  0  0  0
  3 12  1  0  0  0  0
  4 10  2  0  0  0  0
  4 14  1  0  0  0  0
  5 13  1  0  0  0  0
  5 15  1  0  0  0  0
  5 36  1  0  0  0  0
  6  8  1  0  0  0  0
  6 24  1  0  0  0  0
  6 25  1  0  0  0  0
  7  9  1  0  0  0  0
  7 26  1  0  0  0  0
  7 27  1  0  0  0  0
  8 28  1  0  0  0  0
  8 29  1  0  0  0  0
  9 30  1  0  0  0  0
  9 31  1  0  0  0  0
 10 11  1  0  0  0  0
 11 13  1  0  0  0  0
 11 16  2  0  0  0  0
 12 32  1  0  0  0  0
 12 33  1  0  0  0  0
 12 34  1  0  0  0  0
 13 17  2  0  0  0  0
 14 15  2  0  0  0  0
 14 19  1  0  0  0  0
 15 21  1  0  0  0  0
 16 18  1  0  0  0  0
 16 35  1  0  0  0  0
 17 20  1  0  0  0  0
 17 37  1  0  0  0  0
 18 20  2  0  0  0  0
 18 38  1  0  0  0  0
 19 22  2  0  0  0  0
 19 39  1  0  0  0  0
 20 40  1  0  0  0  0
 21 23  2  0  0  0  0
 21 41  1  0  0  0  0
 22 23  1  0  0  0  0
 23 42  1  0  0  0  0
M  END
> <PUBCHEM_COMPOUND_CID>
135398737

> <PUBCHEM_COMPOUND_CANONICALIZED>
1

> <PUBCHEM_CACTVS_COMPLEXITY>
446

> <PUBCHEM_CACTVS_HBOND_ACCEPTOR>
3

> <PUBCHEM_CACTVS_HBOND_DONOR>
1

> <PUBCHEM_CACTVS_ROTATABLE_BOND>
1

> <PUBCHEM_CACTVS_SUBSKEYS>
AAADceB7gAAEAAAAAAAAAAAAAAAAAAAAAAA8YIAABAAAAAABQAAAHAIQAAAADArBGCQzwIPAAACgAiZiZACCAAEhBwAJiAAodpgIYOLB25GUIAhgkADIyAcQgAAOAABAAAICACAAAIAABAQAQAAAAAAAAA==

> <PUBCHEM_IUPAC_OPENEYE_NAME>
3-chloro-6-(4-methylpiperazin-1-yl)-11H-benzo[b][1,4]benzodiazepine

> <PUBCHEM_IUPAC_CAS_NAME>
3-chloro-6-(4-methyl-1-piperazinyl)-11H-benzo[b][1,4]benzodiazepine

> <PUBCHEM_IUPAC_NAME_MARKUP>
3-chloro-6-(4-methylpiperazin-1-yl)-11<I>H</I>-benzo[b][1,4]benzodiazepine

> <PUBCHEM_IUPAC_NAME>
3-chloro-6-(4-methylpiperazin-1-yl)-11H-benzo[b][1,4]benzodiazepine

> <PUBCHEM_IUPAC_SYSTEMATIC_NAME>
3-chloranyl-6-(4-methylpiperazin-1-yl)-11H-benzo[b][1,4]benzodiazepine

> <PUBCHEM_IUPAC_TRADITIONAL_NAME>
3-chloro-6-(4-methylpiperazino)-11H-benzo[b][1,4]benzodiazepine

> <PUBCHEM_IUPAC_INCHI>
InChI=1S/C18H19ClN4/c1-22-8-10-23(11-9-22)18-14-4-2-3-5-15(14)20-16-7-6-13(19)12-17(16)21-18/h2-7,12,20H,8-11H2,1H3

> <PUBCHEM_IUPAC_INCHIKEY>
QZUDBNBUXVUHMW-UHFFFAOYSA-N

> <PUBCHEM_XLOGP3_AA>
3.1

> <PUBCHEM_EXACT_MASS>
326.1298243

> <PUBCHEM_MOLECULAR_FORMULA>
C18H19ClN4

> <PUBCHEM_MOLECULAR_WEIGHT>
326.8

> <PUBCHEM_SMILES>
CN1CCN(CC1)C2=NC3=C(C=CC(=C3)Cl)NC4=CC=CC=C42

> <PUBCHEM_CONNECTIVITY_SMILES>
CN1CCN(CC1)C2=NC3=C(C=CC(=C3)Cl)NC4=CC=CC=C42

> <PUBCHEM_CACTVS_TPSA>
30.9

> <PUBCHEM_MONOISOTOPIC_WEIGHT>
326.1298243

> <PUBCHEM_TOTAL_CHARGE>
0

> <PUBCHEM_HEAVY_ATOM_COUNT>
23

> <PUBCHEM_ATOM_DEF_STEREO_COUNT>
0

> <PUBCHEM_ATOM_UDEF_STEREO_COUNT>
0

> <PUBCHEM_BOND_DEF_STEREO_COUNT>
0

> <PUBCHEM_BOND_UDEF_STEREO_COUNT>
0

> <PUBCHEM_ISOTOPIC_ATOM_COUNT>
0

> <PUBCHEM_COMPONENT_COUNT>
1

> <PUBCHEM_CACTVS_TAUTO_COUNT>
-1

> <PUBCHEM_COORDINATE_TYPE>
1
5
255

> <PUBCHEM_BONDANNOTATIONS>
11  13  8
11  16  8
13  17  8
14  15  8
14  19  8
15  21  8
16  18  8
17  20  8
18  20  8
19  22  8
21  23  8
22  23  8

$$$$
60795
  -OEChem-08112611012D

 57 60  0     0  0  0  0  0  0999 V2000
    4.5961    1.5396    0.0000 Cl  0  0  0  0  0  0  0  0  0  0  0  0
    2.8602    2.5329    0.0000 Cl  0  0  0  0  0  0  0  0  0  0  0  0
   10.6718   -1.9370    0.0000 O   0  0  0  0  0  0  0  0  0  0  0  0
   15.9339   -1.9129    0.0000 O   0  0  0  0  0  0  0  0  0  0  0  0
    6.3397   -1.4537    0.0000 N   0  0  0  0  0  0  0  0  0  0  0  0
    4.6038   -0.4604    0.0000 N   0  0  0  0  0  0  0  0  0  0  0  0
   14.2019   -1.9129    0.0000 N   0  0  0  0  0  0  0  0  0  0  0  0
    5.4756   -1.9571    0.0000 C   0  0  0  0  0  0  0  0  0  0  0  0
    6.3359   -0.4537    0.0000 C   0  0  0  0  0  0  0  0  0  0  0  0
    4.6077   -1.4604    0.0000 C   0  0  0  0  0  0  0  0  0  0  0  0
    5.4679    0.0429    0.0000 C   0  0  0  0  0  0  0  0  0  0  0  0
    7.2077   -1.9504    0.0000 C   0  0  0  0  0  0  0  0  0  0  0  0
    8.0718   -1.4471    0.0000 C   0  0  0  0  0  0  0  0  0  0  0  0
    3.7359    0.0362    0.0000 C   0  0  0  0  0  0  0  0  0  0  0  0
    8.9397   -1.9437    0.0000 C   0  0  0  0  0  0  0  0  0  0  0  0
    9.8038   -1.4404    0.0000 C   0  0  0  0  0  0  0  0  0  0  0  0
    3.7320    1.0362    0.0000 C   0  0  0  0  0  0  0  0  0  0  0  0
    2.8718   -0.4671    0.0000 C   0  0  0  0  0  0  0  0  0  0  0  0
   13.3359   -0.4129    0.0000 C   0  0  0  0  0  0  0  0  0  0  0  0
   14.2019    0.0871    0.0000 C   0  0  0  0  0  0  0  0  0  0  0  0
   13.3359   -1.4129    0.0000 C   0  0  0  0  0  0  0  0  0  0  0  0
   11.5358   -1.4337    0.0000 C   0  0  0  0  0  0  0  0  0  0  0  0
    2.8641    1.5329    0.0000 C   0  0  0  0  0  0  0  0  0  0  0  0
    2.0039    0.0296    0.0000 C   0  0  0  0  0  0  0  0  0  0  0  0
   15.0679   -0.4129    0.0000 C   0  0  0  0  0  0  0  0  0  0  0  0
   12.4419   -1.9476    0.0000 C   0  0  0  0  0  0  0  0  0  0  0  0
    2.0000    1.0296    0.0000 C   0  0  0  0  0  0  0  0  0  0  0  0
   12.4419    0.1218    0.0000 C   0  0  0  0  0  0  0  0  0  0  0  0
   11.5358   -0.3921    0.0000 C   0  0  0  0  0  0  0  0  0  0  0  0
   15.0679   -1.4129    0.0000 C   0  0  0  0  0  0  0  0  0  0  0  0
    5.0789   -2.4336    0.0000 H   0  0  0  0  0  0  0  0  0  0  0  0
    5.8760   -2.4305    0.0000 H   0  0  0  0  0  0  0  0  0  0  0  0
    6.9469   -0.5590    0.0000 H   0  0  0  0  0  0  0  0  0  0  0  0
    6.5457    0.1297    0.0000 H   0  0  0  0  0  0  0  0  0  0  0  0
    3.9967   -1.3551    0.0000 H   0  0  0  0  0  0  0  0  0  0  0  0
    4.3979   -2.0438    0.0000 H   0  0  0  0  0  0  0  0  0  0  0  0
    5.8646    0.5194    0.0000 H   0  0  0  0  0  0  0  0  0  0  0  0
    5.0676    0.5163    0.0000 H   0  0  0  0  0  0  0  0  0  0  0  0
    6.8110   -2.4269    0.0000 H   0  0  0  0  0  0  0  0  0  0  0  0
    7.6080   -2.4238    0.0000 H   0  0  0  0  0  0  0  0  0  0  0  0
    8.4685   -0.9706    0.0000 H   0  0  0  0  0  0  0  0  0  0  0  0
    7.6714   -0.9736    0.0000 H   0  0  0  0  0  0  0  0  0  0  0  0
    8.5430   -2.4202    0.0000 H   0  0  0  0  0  0  0  0  0  0  0  0
    9.3401   -2.4171    0.0000 H   0  0  0  0  0  0  0  0  0  0  0  0
   10.2005   -0.9639    0.0000 H   0  0  0  0  0  0  0  0  0  0  0  0
    9.4035   -0.9670    0.0000 H   0  0  0  0  0  0  0  0  0  0  0  0
    2.8742   -1.0871    0.0000 H   0  0  0  0  0  0  0  0  0  0  0  0
   14.6004    0.5621    0.0000 H   0  0  0  0  0  0  0  0  0  0  0  0
   13.8034    0.5621    0.0000 H   0  0  0  0  0  0  0  0  0  0  0  0
   15.6785   -0.5205    0.0000 H   0  0  0  0  0  0  0  0  0  0  0  0
   15.2800    0.1697    0.0000 H   0  0  0  0  0  0  0  0  0  0  0  0
    1.4681   -0.2825    0.0000 H   0  0  0  0  0  0  0  0  0  0  0  0
   12.4491   -2.5675    0.0000 H   0  0  0  0  0  0  0  0  0  0  0  0
   12.4491    0.7417    0.0000 H   0  0  0  0  0  0  0  0  0  0  0  0
    1.4619    1.3375    0.0000 H   0  0  0  0  0  0  0  0  0  0  0  0
   11.0001   -0.0800    0.0000 H   0  0  0  0  0  0  0  0  0  0  0  0
   14.2019   -2.5329    0.0000 H   0  0  0  0  0  0  0  0  0  0  0  0
  1 17  1  0  0  0  0
  2 23  1  0  0  0  0
  3 16  1  0  0  0  0
  3 22  1  0  0  0  0
  4 30  2  0  0  0  0
  5  8  1  0  0  0  0
  5  9  1  0  0  0  0
  5 12  1  0  0  0  0
  6 10  1  0  0  0  0
  6 11  1  0  0  0  0
  6 14  1  0  0  0  0
  7 21  1  0  0  0  0
  7 30  1  0  0  0  0
  7 57  1  0  0  0  0
  8 10  1  0  0  0  0
  8 31  1  0  0  0  0
  8 32  1  0  0  0  0
  9 11  1  0  0  0  0
  9 33  1  0  0  0  0
  9 34  1  0  0  0  0
 10 35  1  0  0  0  0
 10 36  1  0  0  0  0
 11 37  1  0  0  0  0
 11 38  1  0  0  0  0
 12 13  1  0  0  0  0
 12 39  1  0  0  0  0
 12 40  1  0  0  0  0
 13 15  1  0  0  0  0
 13 41  1  0  0  0  0
 13 42  1  0  0  0  0
 14 17  2  0  0  0  0
 14 18  1  0  0  0  0
 15 16  1  0  0  0  0
 15 43  1  0  0  0  0
 15 44  1  0  0  0  0
 16 45  1  0  0  0  0
 16 46  1  0  0  0  0
 17 23  1  0  0  0  0
 18 24  2  0  0  0  0
 18 47  1  0  0  0  0
 19 20  1  0  0  0  0
 19 21  2  0  0  0  0
 19 28  1  0  0  0  0
 20 25  1  0  0  0  0
 20 48  1  0  0  0  0
 20 49  1  0  0  0  0
 21 26  1  0  0  0  0
 22 26  2  0  0  0  0
 22 29  1  0  0  0  0
 23 27  2  0  0  0  0
 24 27  1  0  0  0  0
 24 52  1  0  0  0  0
 25 30  1  0  0  0  0
 25 50  1  0  0  0  0
 25 51  1  0  0  0  0
 26 53  1  0  0  0  0
 27 55  1  0  0  0  0
 28 29  2  0  0  0  0
 28 54  1  0  0  0  0
 29 56  1  0  0  0  0
M  END
> <PUBCHEM_COMPOUND_CID>
60795

> <PUBCHEM_COMPOUND_CANONICALIZED>
1

> <PUBCHEM_CACTVS_COMPLEXITY>
559

> <PUBCHEM_CACTVS_HBOND_ACCEPTOR>
4

> <PUBCHEM_CACTVS_HBOND_DONOR>
1

> <PUBCHEM_CACTVS_ROTATABLE_BOND>
7

> <PUBCHEM_CACTVS_SUBSKEYS>
AAADceB7MAAGAAAAAAAAAAAAAAAAAAAAAAA8eIEAAAAAAACxQAAAHgIQAAAADA7hmCYwxoPABACIAiVSUACCCAAhJwAIikEObogMZjLFs5vWOCjm1BnI6Ae42aOeIAAAAgICABRAAAAEBAQAKAAAAAAAAA==

> <PUBCHEM_IUPAC_OPENEYE_NAME>
7-[4-[4-(2,3-dichlorophenyl)piperazin-1-yl]butoxy]-3,4-dihydro-1H-quinolin-2-one

> <PUBCHEM_IUPAC_CAS_NAME>
7-[4-[4-(2,3-dichlorophenyl)-1-piperazinyl]butoxy]-3,4-dihydro-1H-quinolin-2-one

> <PUBCHEM_IUPAC_NAME_MARKUP>
7-[4-[4-(2,3-dichlorophenyl)piperazin-1-yl]butoxy]-3,4-dihydro-1<I>H</I>-quinolin-2-one

> <PUBCHEM_IUPAC_NAME>
7-[4-[4-(2,3-dichlorophenyl)piperazin-1-yl]butoxy]-3,4-dihydro-1H-quinolin-2-one

> <PUBCHEM_IUPAC_SYSTEMATIC_NAME>
7-[4-[4-[2,3-bis(chloranyl)phenyl]piperazin-1-yl]butoxy]-3,4-dihydro-1H-quinolin-2-one

> <PUBCHEM_IUPAC_TRADITIONAL_NAME>
7-[4-[4-(2,3-dichlorophenyl)piperazino]butoxy]-3,4-dihydrocarbostyril

> <PUBCHEM_IUPAC_INCHI>
InChI=1S/C23H27Cl2N3O2/c24-19-4-3-5-21(23(19)25)28-13-11-27(12-14-28)10-1-2-15-30-18-8-6-17-7-9-22(29)26-20(17)16-18/h3-6,8,16H,1-2,7,9-15H2,(H,26,29)

> <PUBCHEM_IUPAC_INCHIKEY>
CEUORZQYGODEFX-UHFFFAOYSA-N

> <PUBCHEM_XLOGP3_AA>
4.6

> <PUBCHEM_EXACT_MASS>
447.1480325

> <PUBCHEM_MOLECULAR_FORMULA>
C23H27Cl2N3O2

> <PUBCHEM_MOLECULAR_WEIGHT>
448.4

> <PUBCHEM_SMILES>
C1CC(=O)NC2=C1C=CC(=C2)OCCCCN3CCN(CC3)C4=C(C(=CC=C4)Cl)Cl

> <PUBCHEM_CONNECTIVITY_SMILES>
C1CC(=O)NC2=C1C=CC(=C2)OCCCCN3CCN(CC3)C4=C(C(=CC=C4)Cl)Cl

> <PUBCHEM_CACTVS_TPSA>
44.8

> <PUBCHEM_MONOISOTOPIC_WEIGHT>
447.1480325

> <PUBCHEM_TOTAL_CHARGE>
0

> <PUBCHEM_HEAVY_ATOM_COUNT>
30

> <PUBCHEM_ATOM_DEF_STEREO_COUNT>
0

> <PUBCHEM_ATOM_UDEF_STEREO_COUNT>
0

> <PUBCHEM_BOND_DEF_STEREO_COUNT>
0

> <PUBCHEM_BOND_UDEF_STEREO_COUNT>
0

> <PUBCHEM_ISOTOPIC_ATOM_COUNT>
0

> <PUBCHEM_COMPONENT_COUNT>
1

> <PUBCHEM_CACTVS_TAUTO_COUNT>
-1

> <PUBCHEM_COORDINATE_TYPE>
1
5
255

> <PUBCHEM_BONDANNOTATIONS>
14  17  8
14  18  8
17  23  8
18  24  8
19  21  8
19  28  8
21  26  8
22  26  8
22  29  8
23  27  8
24  27  8
28  29  8

$$$$
60854
  -OEChem-08112611012D

 49 53  0     0  0  0  0  0  0999 V2000
    7.0390   -3.7479    0.0000 Cl  0  0  0  0  0  0  0  0  0  0  0  0
    2.0000    1.5841    0.0000 S   0  0  0  0  0  0  0  0  0  0  0  0
   12.1669   -2.7479    0.0000 O   0  0  0  0  0  0  0  0  0  0  0  0
    6.1730   -0.2479    0.0000 N   0  0  0  0  0  0  0  0  0  0  0  0
    4.4409    0.7521    0.0000 N   0  0  0  0  0  0  0  0  0  0  0  0
    2.6671    0.8470    0.0000 N   0  0  0  0  0  0  0  0  0  0  0  0
   10.5833   -3.5526    0.0000 N   0  0  0  0  0  0  0  0  0  0  0  0
    5.3069   -0.7479    0.0000 C   0  0  0  0  0  0  0  0  0  0  0  0
    6.1730    0.7521    0.0000 C   0  0  0  0  0  0  0  0  0  0  0  0
    4.4409   -0.2479    0.0000 C   0  0  0  0  0  0  0  0  0  0  0  0
    5.3069    1.2522    0.0000 C   0  0  0  0  0  0  0  0  0  0  0  0
    7.0390   -0.7479    0.0000 C   0  0  0  0  0  0  0  0  0  0  0  0
    7.0390   -1.7479    0.0000 C   0  0  0  0  0  0  0  0  0  0  0  0
    3.5749    1.2522    0.0000 C   0  0  0  0  0  0  0  0  0  0  0  0
    7.9050   -2.2479    0.0000 C   0  0  0  0  0  0  0  0  0  0  0  0
    3.4718    2.2409    0.0000 C   0  0  0  0  0  0  0  0  0  0  0  0
    9.6371   -2.2479    0.0000 C   0  0  0  0  0  0  0  0  0  0  0  0
    8.7710   -1.7479    0.0000 C   0  0  0  0  0  0  0  0  0  0  0  0
    9.6371   -3.2479    0.0000 C   0  0  0  0  0  0  0  0  0  0  0  0
    7.9050   -3.2479    0.0000 C   0  0  0  0  0  0  0  0  0  0  0  0
   10.5833   -1.9431    0.0000 C   0  0  0  0  0  0  0  0  0  0  0  0
    2.4933    2.4471    0.0000 C   0  0  0  0  0  0  0  0  0  0  0  0
    8.7710   -3.7479    0.0000 C   0  0  0  0  0  0  0  0  0  0  0  0
   11.1669   -2.7479    0.0000 C   0  0  0  0  0  0  0  0  0  0  0  0
    4.1397    2.9852    0.0000 C   0  0  0  0  0  0  0  0  0  0  0  0
    2.1827    3.3976    0.0000 C   0  0  0  0  0  0  0  0  0  0  0  0
    3.8290    3.9357    0.0000 C   0  0  0  0  0  0  0  0  0  0  0  0
    2.8505    4.1419    0.0000 C   0  0  0  0  0  0  0  0  0  0  0  0
    4.9084   -1.2228    0.0000 H   0  0  0  0  0  0  0  0  0  0  0  0
    5.7055   -1.2228    0.0000 H   0  0  0  0  0  0  0  0  0  0  0  0
    6.7835    0.6445    0.0000 H   0  0  0  0  0  0  0  0  0  0  0  0
    6.3850    1.3348    0.0000 H   0  0  0  0  0  0  0  0  0  0  0  0
    3.8303   -0.1402    0.0000 H   0  0  0  0  0  0  0  0  0  0  0  0
    4.2288   -0.8305    0.0000 H   0  0  0  0  0  0  0  0  0  0  0  0
    5.7055    1.7271    0.0000 H   0  0  0  0  0  0  0  0  0  0  0  0
    4.9084    1.7271    0.0000 H   0  0  0  0  0  0  0  0  0  0  0  0
    7.6496   -0.8555    0.0000 H   0  0  0  0  0  0  0  0  0  0  0  0
    7.2510   -0.1652    0.0000 H   0  0  0  0  0  0  0  0  0  0  0  0
    6.4284   -1.6402    0.0000 H   0  0  0  0  0  0  0  0  0  0  0  0
    6.8269   -2.3305    0.0000 H   0  0  0  0  0  0  0  0  0  0  0  0
    8.7710   -1.1279    0.0000 H   0  0  0  0  0  0  0  0  0  0  0  0
   11.1207   -1.6339    0.0000 H   0  0  0  0  0  0  0  0  0  0  0  0
   10.3322   -1.3762    0.0000 H   0  0  0  0  0  0  0  0  0  0  0  0
    8.7710   -4.3679    0.0000 H   0  0  0  0  0  0  0  0  0  0  0  0
   10.7759   -4.1419    0.0000 H   0  0  0  0  0  0  0  0  0  0  0  0
    4.7463    2.8573    0.0000 H   0  0  0  0  0  0  0  0  0  0  0  0
    1.5760    3.5255    0.0000 H   0  0  0  0  0  0  0  0  0  0  0  0
    4.2431    4.3972    0.0000 H   0  0  0  0  0  0  0  0  0  0  0  0
    2.6579    4.7312    0.0000 H   0  0  0  0  0  0  0  0  0  0  0  0
  1 20  1  0  0  0  0
  2  6  1  0  0  0  0
  2 22  1  0  0  0  0
  3 24  2  0  0  0  0
  4  8  1  0  0  0  0
  4  9  1  0  0  0  0
  4 12  1  0  0  0  0
  5 10  1  0  0  0  0
  5 11  1  0  0  0  0
  5 14  1  0  0  0  0
  6 14  2  0  0  0  0
  7 19  1  0  0  0  0
  7 24  1  0  0  0  0
  7 45  1  0  0  0  0
  8 10  1  0  0  0  0
  8 29  1  0  0  0  0
  8 30  1  0  0  0  0
  9 11  1  0  0  0  0
  9 31  1  0  0  0  0
  9 32  1  0  0  0  0
 10 33  1  0  0  0  0
 10 34  1  0  0  0  0
 11 35  1  0  0  0  0
 11 36  1  0  0  0  0
 12 13  1  0  0  0  0
 12 37  1  0  0  0  0
 12 38  1  0  0  0  0
 13 15  1  0  0  0  0
 13 39  1  0  0  0  0
 13 40  1  0  0  0  0
 14 16  1  0  0  0  0
 15 18  1  0  0  0  0
 15 20  2  0  0  0  0
 16 22  1  0  0  0  0
 16 25  2  0  0  0  0
 17 18  2  0  0  0  0
 17 19  1  0  0  0  0
 17 21  1  0  0  0  0
 18 41  1  0  0  0  0
 19 23  2  0  0  0  0
 20 23  1  0  0  0  0
 21 24  1  0  0  0  0
 21 42  1  0  0  0  0
 21 43  1  0  0  0  0
 22 26  2  0  0  0  0
 23 44  1  0  0  0  0
 25 27  1  0  0  0  0
 25 46  1  0  0  0  0
 26 28  1  0  0  0  0
 26 47  1  0  0  0  0
 27 28  2  0  0  0  0
 27 48  1  0  0  0  0
 28 49  1  0  0  0  0
M  END
> <PUBCHEM_COMPOUND_CID>
60854

> <PUBCHEM_COMPOUND_CANONICALIZED>
1

> <PUBCHEM_CACTVS_COMPLEXITY>
573

> <PUBCHEM_CACTVS_HBOND_ACCEPTOR>
5

> <PUBCHEM_CACTVS_HBOND_DONOR>
1

> <PUBCHEM_CACTVS_ROTATABLE_BOND>
4

> <PUBCHEM_CACTVS_SUBSKEYS>
AAADceB7oABEAAAAAAAAAAAAAAAAAWLAAAA8YIAAAAAAAFgB9AAAHgYQQAAADArB2iQx8dPAAACsAidycACDABAhBwBJmDkoZpiIYLLBn5GUIAxglALIyAcciMCODAACAAIHAAAYAAQABA4AAAAAAAAAAA==

> <PUBCHEM_IUPAC_OPENEYE_NAME>
5-[2-[4-(1,2-benzothiazol-3-yl)piperazin-1-yl]ethyl]-6-chloro-indolin-2-one

> <PUBCHEM_IUPAC_CAS_NAME>
5-[2-[4-(1,2-benzothiazol-3-yl)-1-piperazinyl]ethyl]-6-chloro-1,3-dihydroindol-2-one

> <PUBCHEM_IUPAC_NAME_MARKUP>
5-[2-[4-(1,2-benzothiazol-3-yl)piperazin-1-yl]ethyl]-6-chloro-1,3-dihydroindol-2-one

> <PUBCHEM_IUPAC_NAME>
5-[2-[4-(1,2-benzothiazol-3-yl)piperazin-1-yl]ethyl]-6-chloro-1,3-dihydroindol-2-one

> <PUBCHEM_IUPAC_SYSTEMATIC_NAME>
5-[2-[4-(1,2-benzothiazol-3-yl)piperazin-1-yl]ethyl]-6-chloranyl-1,3-dihydroindol-2-one

> <PUBCHEM_IUPAC_TRADITIONAL_NAME>
5-[2-[4-(1,2-benzothiazol-3-yl)piperazino]ethyl]-6-chloro-oxindole

> <PUBCHEM_IUPAC_INCHI>
InChI=1S/C21H21ClN4OS/c22-17-13-18-15(12-20(27)23-18)11-14(17)5-6-25-7-9-26(10-8-25)21-16-3-1-2-4-19(16)28-24-21/h1-4,11,13H,5-10,12H2,(H,23,27)

> <PUBCHEM_IUPAC_INCHIKEY>
MVWVFYHBGMAFLY-UHFFFAOYSA-N

> <PUBCHEM_XLOGP3_AA>
4

> <PUBCHEM_EXACT_MASS>
412.1124602

> <PUBCHEM_MOLECULAR_FORMULA>
C21H21ClN4OS

> <PUBCHEM_MOLECULAR_WEIGHT>
412.9

> <PUBCHEM_SMILES>
C1CN(CCN1CCC2=C(C=C3C(=C2)CC(=O)N3)Cl)C4=NSC5=CC=CC=C54

> <PUBCHEM_CONNECTIVITY_SMILES>
C1CN(CCN1CCC2=C(C=C3C(=C2)CC(=O)N3)Cl)C4=NSC5=CC=CC=C54

> <PUBCHEM_CACTVS_TPSA>
76.7

> <PUBCHEM_MONOISOTOPIC_WEIGHT>
412.1124602

> <PUBCHEM_TOTAL_CHARGE>
0

> <PUBCHEM_HEAVY_ATOM_COUNT>
28

> <PUBCHEM_ATOM_DEF_STEREO_COUNT>
0

> <PUBCHEM_ATOM_UDEF_STEREO_COUNT>
0

> <PUBCHEM_BOND_DEF_STEREO_COUNT>
0

> <PUBCHEM_BOND_UDEF_STEREO_COUNT>
0

> <PUBCHEM_ISOTOPIC_ATOM_COUNT>
0

> <PUBCHEM_COMPONENT_COUNT>
1

> <PUBCHEM_CACTVS_TAUTO_COUNT>
-1

> <PUBCHEM_COORDINATE_TYPE>
1
5
255

> <PUBCHEM_BONDANNOTATIONS>
14  16  8
15  18  8
15  20  8
16  22  8
16  25  8
17  18  8
17  19  8
19  23  8
2  22  8
2  6  8
20  23  8
22  26  8
25  27  8
26  28  8
27  28  8
6  14  8

$$$$
3964
  -OEChem-08112611012D

 41 44  0     0  0  0  0  0  0999 V2000
    2.0000   -1.4271    0.0000 Cl  0  0  0  0  0  0  0  0  0  0  0  0
    5.8374   -2.7541    0.0000 O   0  0  0  0  0  0  0  0  0  0  0  0
    4.9036    0.3375    0.0000 N   0  0  0  0  0  0  0  0  0  0  0  0
    4.0358    2.1395    0.0000 N   0  0  0  0  0  0  0  0  0  0  0  0
    6.3374   -0.5635    0.0000 N   0  0  0  0  0  0  0  0  0  0  0  0
    5.4669    1.1637    0.0000 C   0  0  0  0  0  0  0  0  0  0  0  0
    3.9064    0.4122    0.0000 C   0  0  0  0  0  0  0  0  0  0  0  0
    5.0330    2.0647    0.0000 C   0  0  0  0  0  0  0  0  0  0  0  0
    3.4725    1.3132    0.0000 C   0  0  0  0  0  0  0  0  0  0  0  0
    5.3374   -0.5635    0.0000 C   0  0  0  0  0  0  0  0  0  0  0  0
    3.6019    3.0404    0.0000 C   0  0  0  0  0  0  0  0  0  0  0  0
    4.7139   -1.3453    0.0000 C   0  0  0  0  0  0  0  0  0  0  0  0
    4.9365   -2.3202    0.0000 C   0  0  0  0  0  0  0  0  0  0  0  0
    6.9609   -1.3453    0.0000 C   0  0  0  0  0  0  0  0  0  0  0  0
    3.7234   -1.0230    0.0000 C   0  0  0  0  0  0  0  0  0  0  0  0
    6.7384   -2.3202    0.0000 C   0  0  0  0  0  0  0  0  0  0  0  0
    4.1839   -3.0404    0.0000 C   0  0  0  0  0  0  0  0  0  0  0  0
    2.9544   -1.7255    0.0000 C   0  0  0  0  0  0  0  0  0  0  0  0
    3.1862   -2.7410    0.0000 C   0  0  0  0  0  0  0  0  0  0  0  0
    7.9514   -1.0230    0.0000 C   0  0  0  0  0  0  0  0  0  0  0  0
    7.4909   -3.0404    0.0000 C   0  0  0  0  0  0  0  0  0  0  0  0
    8.7204   -1.7256    0.0000 C   0  0  0  0  0  0  0  0  0  0  0  0
    8.4886   -2.7411    0.0000 C   0  0  0  0  0  0  0  0  0  0  0  0
    5.9107    0.7308    0.0000 H   0  0  0  0  0  0  0  0  0  0  0  0
    5.9703    1.5257    0.0000 H   0  0  0  0  0  0  0  0  0  0  0  0
    3.3095    0.2443    0.0000 H   0  0  0  0  0  0  0  0  0  0  0  0
    3.9681   -0.2047    0.0000 H   0  0  0  0  0  0  0  0  0  0  0  0
    5.6298    2.2326    0.0000 H   0  0  0  0  0  0  0  0  0  0  0  0
    4.9713    2.6816    0.0000 H   0  0  0  0  0  0  0  0  0  0  0  0
    3.0287    1.7461    0.0000 H   0  0  0  0  0  0  0  0  0  0  0  0
    2.9691    0.9513    0.0000 H   0  0  0  0  0  0  0  0  0  0  0  0
    4.1605    3.3094    0.0000 H   0  0  0  0  0  0  0  0  0  0  0  0
    3.3329    3.5990    0.0000 H   0  0  0  0  0  0  0  0  0  0  0  0
    3.0433    2.7714    0.0000 H   0  0  0  0  0  0  0  0  0  0  0  0
    3.5925   -0.4169    0.0000 H   0  0  0  0  0  0  0  0  0  0  0  0
    4.3288   -3.6432    0.0000 H   0  0  0  0  0  0  0  0  0  0  0  0
    2.7333   -3.1645    0.0000 H   0  0  0  0  0  0  0  0  0  0  0  0
    8.0824   -0.4170    0.0000 H   0  0  0  0  0  0  0  0  0  0  0  0
    7.3460   -3.6432    0.0000 H   0  0  0  0  0  0  0  0  0  0  0  0
    9.3122   -1.5405    0.0000 H   0  0  0  0  0  0  0  0  0  0  0  0
    8.9415   -3.1645    0.0000 H   0  0  0  0  0  0  0  0  0  0  0  0
  1 18  1  0  0  0  0
  2 13  1  0  0  0  0
  2 16  1  0  0  0  0
  3  6  1  0  0  0  0
  3  7  1  0  0  0  0
  3 10  1  0  0  0  0
  4  8  1  0  0  0  0
  4  9  1  0  0  0  0
  4 11  1  0  0  0  0
  5 10  2  0  0  0  0
  5 14  1  0  0  0  0
  6  8  1  0  0  0  0
  6 24  1  0  0  0  0
  6 25  1  0  0  0  0
  7  9  1  0  0  0  0
  7 26  1  0  0  0  0
  7 27  1  0  0  0  0
  8 28  1  0  0  0  0
  8 29  1  0  0  0  0
  9 30  1  0  0  0  0
  9 31  1  0  0  0  0
 10 12  1  0  0  0  0
 11 32  1  0  0  0  0
 11 33  1  0  0  0  0
 11 34  1  0  0  0  0
 12 13  2  0  0  0  0
 12 15  1  0  0  0  0
 13 17  1  0  0  0  0
 14 16  1  0  0  0  0
 14 20  2  0  0  0  0
 15 18  2  0  0  0  0
 15 35  1  0  0  0  0
 16 21  2  0  0  0  0
 17 19  2  0  0  0  0
 17 36  1  0  0  0  0
 18 19  1  0  0  0  0
 19 37  1  0  0  0  0
 20 22  1  0  0  0  0
 20 38  1  0  0  0  0
 21 23  1  0  0  0  0
 21 39  1  0  0  0  0
 22 23  2  0  0  0  0
 22 40  1  0  0  0  0
 23 41  1  0  0  0  0
M  END
> <PUBCHEM_COMPOUND_CID>
3964

> <PUBCHEM_COMPOUND_CANONICALIZED>
1

> <PUBCHEM_CACTVS_COMPLEXITY>
450

> <PUBCHEM_CACTVS_HBOND_ACCEPTOR>
3

> <PUBCHEM_CACTVS_HBOND_DONOR>
0

> <PUBCHEM_CACTVS_ROTATABLE_BOND>
1

> <PUBCHEM_CACTVS_SUBSKEYS>
AAADceB7IAAEAAAAAAAAAAAAAAAAAAAAAAA8YIAABAAAAAABQAAAHgIAAAAADA7BmCQzxoMABACgAiZiZACCCAEgJwAJiAAvbpgOZqKFu5uXOCjmwBGI6AeQwCAOACAAIAAIEAAAQABAABAgAAAAAAAAAA==

> <PUBCHEM_IUPAC_OPENEYE_NAME>
8-chloro-6-(4-methylpiperazin-1-yl)benzo[b][1,4]benzoxazepine

> <PUBCHEM_IUPAC_CAS_NAME>
8-chloro-6-(4-methyl-1-piperazinyl)benzo[b][1,4]benzoxazepine

> <PUBCHEM_IUPAC_NAME_MARKUP>
8-chloro-6-(4-methylpiperazin-1-yl)benzo[b][1,4]benzoxazepine

> <PUBCHEM_IUPAC_NAME>
8-chloro-6-(4-methylpiperazin-1-yl)benzo[b][1,4]benzoxazepine

> <PUBCHEM_IUPAC_SYSTEMATIC_NAME>
8-chloranyl-6-(4-methylpiperazin-1-yl)benzo[b][1,4]benzoxazepine

> <PUBCHEM_IUPAC_TRADITIONAL_NAME>
8-chloro-6-(4-methylpiperazino)benzo[b][1,4]benzoxazepine

> <PUBCHEM_IUPAC_INCHI>
InChI=1S/C18H18ClN3O/c1-21-8-10-22(11-9-21)18-14-12-13(19)6-7-16(14)23-17-5-3-2-4-15(17)20-18/h2-7,12H,8-11H2,1H3

> <PUBCHEM_IUPAC_INCHIKEY>
XJGVXQDUIWGIRW-UHFFFAOYSA-N

> <PUBCHEM_XLOGP3_AA>
3.1

> <PUBCHEM_EXACT_MASS>
327.1138399

> <PUBCHEM_MOLECULAR_FORMULA>
C18H18ClN3O

> <PUBCHEM_MOLECULAR_WEIGHT>
327.8

> <PUBCHEM_SMILES>
CN1CCN(CC1)C2=NC3=CC=CC=C3OC4=C2C=C(C=C4)Cl

> <PUBCHEM_CONNECTIVITY_SMILES>
CN1CCN(CC1)C2=NC3=CC=CC=C3OC4=C2C=C(C=C4)Cl

> <PUBCHEM_CACTVS_TPSA>
28.1

> <PUBCHEM_MONOISOTOPIC_WEIGHT>
327.1138399

> <PUBCHEM_TOTAL_CHARGE>
0

> <PUBCHEM_HEAVY_ATOM_COUNT>
23

> <PUBCHEM_ATOM_DEF_STEREO_COUNT>
0

> <PUBCHEM_ATOM_UDEF_STEREO_COUNT>
0

> <PUBCHEM_BOND_DEF_STEREO_COUNT>
0

> <PUBCHEM_BOND_UDEF_STEREO_COUNT>
0

> <PUBCHEM_ISOTOPIC_ATOM_COUNT>
0

> <PUBCHEM_COMPONENT_COUNT>
1

> <PUBCHEM_CACTVS_TAUTO_COUNT>
-1

> <PUBCHEM_COORDINATE_TYPE>
1
5
255

> <PUBCHEM_BONDANNOTATIONS>
12  13  8
12  15  8
13  17  8
14  16  8
14  20  8
15  18  8
16  21  8
17  19  8
18  19  8
20  22  8
21  23  8
22  23  8

$$$$
667467
  -OEChem-08112611012D

 39 41  0     0  0  0  0  0  0999 V2000
    8.1962   -0.9585    0.0000 Cl  0  0  0  0  0  0  0  0  0  0  0  0
    4.6660   -2.9827    0.0000 S   0  0  0  0  0  0  0  0  0  0  0  0
    6.3981    2.0173    0.0000 N   0  0  0  0  0  0  0  0  0  0  0  0
    4.6660   -0.9827    0.0000 C   0  0  0  0  0  0  0  0  0  0  0  0
    5.5321    0.5173    0.0000 C   0  0  0  0  0  0  0  0  0  0  0  0
    5.5321   -1.4827    0.0000 C   0  0  0  0  0  0  0  0  0  0  0  0
    3.8000   -1.4827    0.0000 C   0  0  0  0  0  0  0  0  0  0  0  0
    4.6660    0.0173    0.0000 C   0  0  0  0  0  0  0  0  0  0  0  0
    5.5321    1.5173    0.0000 C   0  0  0  0  0  0  0  0  0  0  0  0
    5.5321   -2.4827    0.0000 C   0  0  0  0  0  0  0  0  0  0  0  0
    3.8000   -2.4827    0.0000 C   0  0  0  0  0  0  0  0  0  0  0  0
    6.4260   -0.9480    0.0000 C   0  0  0  0  0  0  0  0  0  0  0  0
    2.9061   -0.9480    0.0000 C   0  0  0  0  0  0  0  0  0  0  0  0
    6.4260   -3.0173    0.0000 C   0  0  0  0  0  0  0  0  0  0  0  0
    2.9061   -3.0173    0.0000 C   0  0  0  0  0  0  0  0  0  0  0  0
    7.3321   -1.4619    0.0000 C   0  0  0  0  0  0  0  0  0  0  0  0
    2.0000   -1.4619    0.0000 C   0  0  0  0  0  0  0  0  0  0  0  0
    6.3981    3.0173    0.0000 C   0  0  0  0  0  0  0  0  0  0  0  0
    7.2641    1.5173    0.0000 C   0  0  0  0  0  0  0  0  0  0  0  0
    7.3321   -2.5035    0.0000 C   0  0  0  0  0  0  0  0  0  0  0  0
    2.0000   -2.5035    0.0000 C   0  0  0  0  0  0  0  0  0  0  0  0
    5.7441   -0.0653    0.0000 H   0  0  0  0  0  0  0  0  0  0  0  0
    6.1426    0.6250    0.0000 H   0  0  0  0  0  0  0  0  0  0  0  0
    5.3200    2.0999    0.0000 H   0  0  0  0  0  0  0  0  0  0  0  0
    4.9215    1.4097    0.0000 H   0  0  0  0  0  0  0  0  0  0  0  0
    4.1291    0.3273    0.0000 H   0  0  0  0  0  0  0  0  0  0  0  0
    6.4188   -0.3281    0.0000 H   0  0  0  0  0  0  0  0  0  0  0  0
    2.9132   -0.3281    0.0000 H   0  0  0  0  0  0  0  0  0  0  0  0
    6.4188   -3.6373    0.0000 H   0  0  0  0  0  0  0  0  0  0  0  0
    2.9132   -3.6373    0.0000 H   0  0  0  0  0  0  0  0  0  0  0  0
    1.4643   -1.1498    0.0000 H   0  0  0  0  0  0  0  0  0  0  0  0
    7.0181    3.0173    0.0000 H   0  0  0  0  0  0  0  0  0  0  0  0
    6.3981    3.6373    0.0000 H   0  0  0  0  0  0  0  0  0  0  0  0
    5.7781    3.0173    0.0000 H   0  0  0  0  0  0  0  0  0  0  0  0
    6.9541    0.9804    0.0000 H   0  0  0  0  0  0  0  0  0  0  0  0
    7.8011    1.2073    0.0000 H   0  0  0  0  0  0  0  0  0  0  0  0
    7.5741    2.0543    0.0000 H   0  0  0  0  0  0  0  0  0  0  0  0
    7.8678   -2.8156    0.0000 H   0  0  0  0  0  0  0  0  0  0  0  0
    1.4643   -2.8156    0.0000 H   0  0  0  0  0  0  0  0  0  0  0  0
  1 16  1  0  0  0  0
  2 10  1  0  0  0  0
  2 11  1  0  0  0  0
  3  9  1  0  0  0  0
  3 18  1  0  0  0  0
  3 19  1  0  0  0  0
  4  6  1  0  0  0  0
  4  7  1  0  0  0  0
  4  8  2  0  0  0  0
  5  8  1  0  0  0  0
  5  9  1  0  0  0  0
  5 22  1  0  0  0  0
  5 23  1  0  0  0  0
  6 10  2  0  0  0  0
  6 12  1  0  0  0  0
  7 11  1  0  0  0  0
  7 13  2  0  0  0  0
  8 26  1  0  0  0  0
  9 24  1  0  0  0  0
  9 25  1  0  0  0  0
 10 14  1  0  0  0  0
 11 15  2  0  0  0  0
 12 16  2  0  0  0  0
 12 27  1  0  0  0  0
 13 17  1  0  0  0  0
 13 28  1  0  0  0  0
 14 20  2  0  0  0  0
 14 29  1  0  0  0  0
 15 21  1  0  0  0  0
 15 30  1  0  0  0  0
 16 20  1  0  0  0  0
 17 21  2  0  0  0  0
 17 31  1  0  0  0  0
 18 32  1  0  0  0  0
 18 33  1  0  0  0  0
 18 34  1  0  0  0  0
 19 35  1  0  0  0  0
 19 36  1  0  0  0  0
 19 37  1  0  0  0  0
 20 38  1  0  0  0  0
 21 39  1  0  0  0  0
M  END
> <PUBCHEM_COMPOUND_CID>
667467

> <PUBCHEM_COMPOUND_CANONICALIZED>
1

> <PUBCHEM_CACTVS_COMPLEXITY>
381

> <PUBCHEM_CACTVS_HBOND_ACCEPTOR>
2

> <PUBCHEM_CACTVS_HBOND_DONOR>
0

> <PUBCHEM_CACTVS_ROTATABLE_BOND>
3

> <PUBCHEM_CACTVS_SUBSKEYS>
AAADceB6AABEAAAAAAAAAAAAAAAAAAAAAAA0YIAAAAAAAACRQAAAHAYAAAAADALBWCQyAYMAAAiAAiBCAAACAAAgDRAIiBgIAogIICKhExCEIAAggAAoiAcAgMAOAAIAIAAEAAAABABAAAgAAAAAAAAAAA==

> <PUBCHEM_IUPAC_OPENEYE_NAME>
(3Z)-3-(2-chlorothioxanthen-9-ylidene)-N,N-dimethyl-propan-1-amine

> <PUBCHEM_IUPAC_CAS_NAME>
(3Z)-3-(2-chloro-9-thioxanthenylidene)-N,N-dimethyl-1-propanamine

> <PUBCHEM_IUPAC_NAME_MARKUP>
(3<I>Z</I>)-3-(2-chlorothioxanthen-9-ylidene)-<I>N</I>,<I>N</I>-dimethylpropan-1-amine

> <PUBCHEM_IUPAC_NAME>
(3Z)-3-(2-chlorothioxanthen-9-ylidene)-N,N-dimethylpropan-1-amine

> <PUBCHEM_IUPAC_SYSTEMATIC_NAME>
(3Z)-3-(2-chloranylthioxanthen-9-ylidene)-N,N-dimethyl-propan-1-amine

> <PUBCHEM_IUPAC_TRADITIONAL_NAME>
[(3Z)-3-(2-chlorothioxanthen-9-ylidene)propyl]-dimethyl-amine

> <PUBCHEM_IUPAC_INCHI>
InChI=1S/C18H18ClNS/c1-20(2)11-5-7-14-15-6-3-4-8-17(15)21-18-10-9-13(19)12-16(14)18/h3-4,6-10,12H,5,11H2,1-2H3/b14-7-

> <PUBCHEM_IUPAC_INCHIKEY>
WSPOMRSOLSGNFJ-AUWJEWJLSA-N

> <PUBCHEM_XLOGP3>
5.2

> <PUBCHEM_EXACT_MASS>
315.0848484

> <PUBCHEM_MOLECULAR_FORMULA>
C18H18ClNS

> <PUBCHEM_MOLECULAR_WEIGHT>
315.9

> <PUBCHEM_SMILES>
CN(C)CC/C=C\1/C2=CC=CC=C2SC3=C1C=C(C=C3)Cl

> <PUBCHEM_CONNECTIVITY_SMILES>
CN(C)CCC=C1C2=CC=CC=C2SC3=C1C=C(C=C3)Cl

> <PUBCHEM_CACTVS_TPSA>
28.5

> <PUBCHEM_MONOISOTOPIC_WEIGHT>
315.0848484

> <PUBCHEM_TOTAL_CHARGE>
0

> <PUBCHEM_HEAVY_ATOM_COUNT>
21

> <PUBCHEM_ATOM_DEF_STEREO_COUNT>
0

> <PUBCHEM_ATOM_UDEF_STEREO_COUNT>
0

> <PUBCHEM_BOND_DEF_STEREO_COUNT>
1

> <PUBCHEM_BOND_UDEF_STEREO_COUNT>
0

> <PUBCHEM_ISOTOPIC_ATOM_COUNT>
0

> <PUBCHEM_COMPONENT_COUNT>
1

> <PUBCHEM_CACTVS_TAUTO_COUNT>
-1

> <PUBCHEM_COORDINATE_TYPE>
1
5
255

> <PUBCHEM_BONDANNOTATIONS>
10  14  8
11  15  8
12  16  8
13  17  8
14  20  8
15  21  8
16  20  8
17  21  8
6  10  8
6  12  8
7  11  8
7  13  8

$$$$
5311507
  -OEChem-08112611012D

 52 55  0     0  0  0  0  0  0999 V2000
    8.1962   -2.2685    0.0000 Cl  0  0  0  0  0  0  0  0  0  0  0  0
    4.6660   -4.2927    0.0000 S   0  0  0  0  0  0  0  0  0  0  0  0
    9.8622    3.7073    0.0000 O   0  0  0  0  0  0  0  0  0  0  0  0
    6.3981    0.7073    0.0000 N   0  0  0  0  0  0  0  0  0  0  0  0
    8.1301    1.7073    0.0000 N   0  0  0  0  0  0  0  0  0  0  0  0
    6.3981    1.7073    0.0000 C   0  0  0  0  0  0  0  0  0  0  0  0
    7.2641    0.2073    0.0000 C   0  0  0  0  0  0  0  0  0  0  0  0
    7.2641    2.2073    0.0000 C   0  0  0  0  0  0  0  0  0  0  0  0
    8.1301    0.7073    0.0000 C   0  0  0  0  0  0  0  0  0  0  0  0
    5.5321    0.2073    0.0000 C   0  0  0  0  0  0  0  0  0  0  0  0
    8.9962    2.2073    0.0000 C   0  0  0  0  0  0  0  0  0  0  0  0
    5.5321   -0.7927    0.0000 C   0  0  0  0  0  0  0  0  0  0  0  0
    8.9962    3.2073    0.0000 C   0  0  0  0  0  0  0  0  0  0  0  0
    4.6660   -1.2927    0.0000 C   0  0  0  0  0  0  0  0  0  0  0  0
    4.6660   -2.2927    0.0000 C   0  0  0  0  0  0  0  0  0  0  0  0
    5.5321   -2.7927    0.0000 C   0  0  0  0  0  0  0  0  0  0  0  0
    3.8000   -2.7927    0.0000 C   0  0  0  0  0  0  0  0  0  0  0  0
    5.5321   -3.7927    0.0000 C   0  0  0  0  0  0  0  0  0  0  0  0
    3.8000   -3.7927    0.0000 C   0  0  0  0  0  0  0  0  0  0  0  0
    6.4260   -2.2580    0.0000 C   0  0  0  0  0  0  0  0  0  0  0  0
    2.9061   -2.2580    0.0000 C   0  0  0  0  0  0  0  0  0  0  0  0
    6.4260   -4.3273    0.0000 C   0  0  0  0  0  0  0  0  0  0  0  0
    2.9061   -4.3273    0.0000 C   0  0  0  0  0  0  0  0  0  0  0  0
    7.3321   -2.7719    0.0000 C   0  0  0  0  0  0  0  0  0  0  0  0
    2.0000   -2.7719    0.0000 C   0  0  0  0  0  0  0  0  0  0  0  0
    7.3321   -3.8135    0.0000 C   0  0  0  0  0  0  0  0  0  0  0  0
    2.0000   -3.8135    0.0000 C   0  0  0  0  0  0  0  0  0  0  0  0
    6.1860    2.2899    0.0000 H   0  0  0  0  0  0  0  0  0  0  0  0
    5.7875    1.5997    0.0000 H   0  0  0  0  0  0  0  0  0  0  0  0
    6.8656   -0.2676    0.0000 H   0  0  0  0  0  0  0  0  0  0  0  0
    7.6626   -0.2676    0.0000 H   0  0  0  0  0  0  0  0  0  0  0  0
    7.6626    2.6823    0.0000 H   0  0  0  0  0  0  0  0  0  0  0  0
    6.8656    2.6823    0.0000 H   0  0  0  0  0  0  0  0  0  0  0  0
    8.3422    0.1247    0.0000 H   0  0  0  0  0  0  0  0  0  0  0  0
    8.7407    0.8150    0.0000 H   0  0  0  0  0  0  0  0  0  0  0  0
    5.3200    0.7899    0.0000 H   0  0  0  0  0  0  0  0  0  0  0  0
    4.9215    0.0997    0.0000 H   0  0  0  0  0  0  0  0  0  0  0  0
    9.2082    1.6247    0.0000 H   0  0  0  0  0  0  0  0  0  0  0  0
    9.6067    2.3150    0.0000 H   0  0  0  0  0  0  0  0  0  0  0  0
    5.7441   -1.3753    0.0000 H   0  0  0  0  0  0  0  0  0  0  0  0
    6.1426   -0.6850    0.0000 H   0  0  0  0  0  0  0  0  0  0  0  0
    8.7841    3.7899    0.0000 H   0  0  0  0  0  0  0  0  0  0  0  0
    8.3856    3.0997    0.0000 H   0  0  0  0  0  0  0  0  0  0  0  0
    4.1291   -0.9827    0.0000 H   0  0  0  0  0  0  0  0  0  0  0  0
    9.8622    4.3273    0.0000 H   0  0  0  0  0  0  0  0  0  0  0  0
    6.4188   -1.6381    0.0000 H   0  0  0  0  0  0  0  0  0  0  0  0
    2.9132   -1.6381    0.0000 H   0  0  0  0  0  0  0  0  0  0  0  0
    6.4188   -4.9473    0.0000 H   0  0  0  0  0  0  0  0  0  0  0  0
    2.9132   -4.9473    0.0000 H   0  0  0  0  0  0  0  0  0  0  0  0
    1.4643   -2.4598    0.0000 H   0  0  0  0  0  0  0  0  0  0  0  0
    7.8678   -4.1256    0.0000 H   0  0  0  0  0  0  0  0  0  0  0  0
    1.4643   -4.1256    0.0000 H   0  0  0  0  0  0  0  0  0  0  0  0
  1 24  1  0  0  0  0
  2 18  1  0  0  0  0
  2 19  1  0  0  0  0
  3 13  1  0  0  0  0
  3 45  1  0  0  0  0
  4  6  1  0  0  0  0
  4  7  1  0  0  0  0
  4 10  1  0  0  0  0
  5  8  1  0  0  0  0
  5  9  1  0  0  0  0
  5 11  1  0  0  0  0
  6  8  1  0  0  0  0
  6 28  1  0  0  0  0
  6 29  1  0  0  0  0
  7  9  1  0  0  0  0
  7 30  1  0  0  0  0
  7 31  1  0  0  0  0
  8 32  1  0  0  0  0
  8 33  1  0  0  0  0
  9 34  1  0  0  0  0
  9 35  1  0  0  0  0
 10 12  1  0  0  0  0
 10 36  1  0  0  0  0
 10 37  1  0  0  0  0
 11 13  1  0  0  0  0
 11 38  1  0  0  0  0
 11 39  1  0  0  0  0
 12 14  1  0  0  0  0
 12 40  1  0  0  0  0
 12 41  1  0  0  0  0
 13 42  1  0  0  0  0
 13 43  1  0  0  0  0
 14 15  2  0  0  0  0
 14 44  1  0  0  0  0
 15 16  1  0  0  0  0
 15 17  1  0  0  0  0
 16 18  2  0  0  0  0
 16 20  1  0  0  0  0
 17 19  1  0  0  0  0
 17 21  2  0  0  0  0
 18 22  1  0  0  0  0
 19 23  2  0  0  0  0
 20 24  2  0  0  0  0
 20 46  1  0  0  0  0
 21 25  1  0  0  0  0
 21 47  1  0  0  0  0
 22 26  2  0  0  0  0
 22 48  1  0  0  0  0
 23 27  1  0  0  0  0
 23 49  1  0  0  0  0
 24 26  1  0  0  0  0
 25 27  2  0  0  0  0
 25 50  1  0  0  0  0
 26 51  1  0  0  0  0
 27 52  1  0  0  0  0
M  END
> <PUBCHEM_COMPOUND_CID>
5311507

> <PUBCHEM_COMPOUND_CANONICALIZED>
1

> <PUBCHEM_CACTVS_COMPLEXITY>
509

> <PUBCHEM_CACTVS_HBOND_ACCEPTOR>
4

> <PUBCHEM_CACTVS_HBOND_DONOR>
1

> <PUBCHEM_CACTVS_ROTATABLE_BOND>
5

> <PUBCHEM_CACTVS_SUBSKEYS>
AAADceB7IABEAAAAAAAAAAAAAAAAAAAAAAA8aIEAAAAAAACRQAAAHgYACAAADALh2CYwAYMAAgiAAiBCAAACAAAgDRAIiBgIAogKcCKhExCUIAAggAC4iAcAgMAOAAIAIAAEAAAABABAAAgAAAAAAAAAAA==

> <PUBCHEM_IUPAC_OPENEYE_NAME>
2-[4-[(3Z)-3-(2-chlorothioxanthen-9-ylidene)propyl]piperazin-1-yl]ethanol

> <PUBCHEM_IUPAC_CAS_NAME>
2-[4-[(3Z)-3-(2-chloro-9-thioxanthenylidene)propyl]-1-piperazinyl]ethanol

> <PUBCHEM_IUPAC_NAME_MARKUP>
2-[4-[(3<I>Z</I>)-3-(2-chlorothioxanthen-9-ylidene)propyl]piperazin-1-yl]ethanol

> <PUBCHEM_IUPAC_NAME>
2-[4-[(3Z)-3-(2-chlorothioxanthen-9-ylidene)propyl]piperazin-1-yl]ethanol

> <PUBCHEM_IUPAC_SYSTEMATIC_NAME>
2-[4-[(3Z)-3-(2-chloranylthioxanthen-9-ylidene)propyl]piperazin-1-yl]ethanol

> <PUBCHEM_IUPAC_TRADITIONAL_NAME>
2-[4-[(3Z)-3-(2-chlorothioxanthen-9-ylidene)propyl]piperazino]ethanol

> <PUBCHEM_IUPAC_INCHI>
InChI=1S/C22H25ClN2OS/c23-17-7-8-22-20(16-17)18(19-4-1-2-6-21(19)27-22)5-3-9-24-10-12-25(13-11-24)14-15-26/h1-2,4-8,16,26H,3,9-15H2/b18-5-

> <PUBCHEM_IUPAC_INCHIKEY>
WFPIAZLQTJBIFN-DVZOWYKESA-N

> <PUBCHEM_XLOGP3>
4.3

> <PUBCHEM_EXACT_MASS>
400.1376123

> <PUBCHEM_MOLECULAR_FORMULA>
C22H25ClN2OS

> <PUBCHEM_MOLECULAR_WEIGHT>
401.0

> <PUBCHEM_SMILES>
C1CN(CCN1CC/C=C\2/C3=CC=CC=C3SC4=C2C=C(C=C4)Cl)CCO

> <PUBCHEM_CONNECTIVITY_SMILES>
C1CN(CCN1CCC=C2C3=CC=CC=C3SC4=C2C=C(C=C4)Cl)CCO

> <PUBCHEM_CACTVS_TPSA>
52

> <PUBCHEM_MONOISOTOPIC_WEIGHT>
400.1376123

> <PUBCHEM_TOTAL_CHARGE>
0

> <PUBCHEM_HEAVY_ATOM_COUNT>
27

> <PUBCHEM_ATOM_DEF_STEREO_COUNT>
0

> <PUBCHEM_ATOM_UDEF_STEREO_COUNT>
0

> <PUBCHEM_BOND_DEF_STEREO_COUNT>
1

> <PUBCHEM_BOND_UDEF_STEREO_COUNT>
0

> <PUBCHEM_ISOTOPIC_ATOM_COUNT>
0

> <PUBCHEM_COMPONENT_COUNT>
1

> <PUBCHEM_CACTVS_TAUTO_COUNT>
-1

> <PUBCHEM_COORDINATE_TYPE>
1
5
255

> <PUBCHEM_BONDANNOTATIONS>
16  18  8
16  20  8
17  19  8
17  21  8
18  22  8
19  23  8
20  24  8
21  25  8
22  26  8
23  27  8
24  26  8
25  27  8

$$$$
5281881
  -OEChem-08112611012D

 55 58  0     0  0  0  0  0  0999 V2000
    4.6660   -4.2927    0.0000 S   0  0  0  0  0  0  0  0  0  0  0  0
    9.0603   -1.7652    0.0000 F   0  0  0  0  0  0  0  0  0  0  0  0
    8.6995   -3.1326    0.0000 F   0  0  0  0  0  0  0  0  0  0  0  0
    7.6928   -1.4044    0.0000 F   0  0  0  0  0  0  0  0  0  0  0  0
    9.8622    3.7073    0.0000 O   0  0  0  0  0  0  0  0  0  0  0  0
    6.3981    0.7073    0.0000 N   0  0  0  0  0  0  0  0  0  0  0  0
    8.1301    1.7073    0.0000 N   0  0  0  0  0  0  0  0  0  0  0  0
    6.3981    1.7073    0.0000 C   0  0  0  0  0  0  0  0  0  0  0  0
    7.2641    0.2073    0.0000 C   0  0  0  0  0  0  0  0  0  0  0  0
    7.2641    2.2073    0.0000 C   0  0  0  0  0  0  0  0  0  0  0  0
    8.1301    0.7073    0.0000 C   0  0  0  0  0  0  0  0  0  0  0  0
    5.5321    0.2073    0.0000 C   0  0  0  0  0  0  0  0  0  0  0  0
    8.9962    2.2073    0.0000 C   0  0  0  0  0  0  0  0  0  0  0  0
    5.5321   -0.7927    0.0000 C   0  0  0  0  0  0  0  0  0  0  0  0
    8.9962    3.2073    0.0000 C   0  0  0  0  0  0  0  0  0  0  0  0
    4.6660   -1.2927    0.0000 C   0  0  0  0  0  0  0  0  0  0  0  0
    4.6660   -2.2927    0.0000 C   0  0  0  0  0  0  0  0  0  0  0  0
    5.5321   -2.7927    0.0000 C   0  0  0  0  0  0  0  0  0  0  0  0
    3.8000   -2.7927    0.0000 C   0  0  0  0  0  0  0  0  0  0  0  0
    5.5321   -3.7927    0.0000 C   0  0  0  0  0  0  0  0  0  0  0  0
    3.8000   -3.7927    0.0000 C   0  0  0  0  0  0  0  0  0  0  0  0
    6.4260   -2.2580    0.0000 C   0  0  0  0  0  0  0  0  0  0  0  0
    2.9061   -2.2580    0.0000 C   0  0  0  0  0  0  0  0  0  0  0  0
    7.3321   -2.7719    0.0000 C   0  0  0  0  0  0  0  0  0  0  0  0
    6.4260   -4.3273    0.0000 C   0  0  0  0  0  0  0  0  0  0  0  0
    2.9061   -4.3273    0.0000 C   0  0  0  0  0  0  0  0  0  0  0  0
    7.3321   -3.8135    0.0000 C   0  0  0  0  0  0  0  0  0  0  0  0
    2.0000   -2.7719    0.0000 C   0  0  0  0  0  0  0  0  0  0  0  0
    2.0000   -3.8135    0.0000 C   0  0  0  0  0  0  0  0  0  0  0  0
    8.1962   -2.2685    0.0000 C   0  0  0  0  0  0  0  0  0  0  0  0
    6.1860    2.2899    0.0000 H   0  0  0  0  0  0  0  0  0  0  0  0
    5.7875    1.5997    0.0000 H   0  0  0  0  0  0  0  0  0  0  0  0
    6.8656   -0.2676    0.0000 H   0  0  0  0  0  0  0  0  0  0  0  0
    7.6626   -0.2676    0.0000 H   0  0  0  0  0  0  0  0  0  0  0  0
    7.6626    2.6823    0.0000 H   0  0  0  0  0  0  0  0  0  0  0  0
    6.8656    2.6823    0.0000 H   0  0  0  0  0  0  0  0  0  0  0  0
    8.3422    0.1247    0.0000 H   0  0  0  0  0  0  0  0  0  0  0  0
    8.7407    0.8150    0.0000 H   0  0  0  0  0  0  0  0  0  0  0  0
    5.3200    0.7899    0.0000 H   0  0  0  0  0  0  0  0  0  0  0  0
    4.9215    0.0997    0.0000 H   0  0  0  0  0  0  0  0  0  0  0  0
    9.2082    1.6247    0.0000 H   0  0  0  0  0  0  0  0  0  0  0  0
    9.6067    2.3150    0.0000 H   0  0  0  0  0  0  0  0  0  0  0  0
    5.7441   -1.3753    0.0000 H   0  0  0  0  0  0  0  0  0  0  0  0
    6.1426   -0.6850    0.0000 H   0  0  0  0  0  0  0  0  0  0  0  0
    8.7841    3.7899    0.0000 H   0  0  0  0  0  0  0  0  0  0  0  0
    8.3856    3.0997    0.0000 H   0  0  0  0  0  0  0  0  0  0  0  0
    4.1291   -0.9827    0.0000 H   0  0  0  0  0  0  0  0  0  0  0  0
    6.4188   -1.6381    0.0000 H   0  0  0  0  0  0  0  0  0  0  0  0
    2.9132   -1.6381    0.0000 H   0  0  0  0  0  0  0  0  0  0  0  0
    9.8622    4.3273    0.0000 H   0  0  0  0  0  0  0  0  0  0  0  0
    6.4188   -4.9473    0.0000 H   0  0  0  0  0  0  0  0  0  0  0  0
    2.9132   -4.9473    0.0000 H   0  0  0  0  0  0  0  0  0  0  0  0
    7.8678   -4.1256    0.0000 H   0  0  0  0  0  0  0  0  0  0  0  0
    1.4643   -2.4598    0.0000 H   0  0  0  0  0  0  0  0  0  0  0  0
    1.4643   -4.1256    0.0000 H   0  0  0  0  0  0  0  0  0  0  0  0
  1 20  1  0  0  0  0
  1 21  1  0  0  0  0
  2 30  1  0  0  0  0
  3 30  1  0  0  0  0
  4 30  1  0  0  0  0
  5 15  1  0  0  0  0
  5 50  1  0  0  0  0
  6  8  1  0  0  0  0
  6  9  1  0  0  0  0
  6 12  1  0  0  0  0
  7 10  1  0  0  0  0
  7 11  1  0  0  0  0
  7 13  1  0  0  0  0
  8 10  1  0  0  0  0
  8 31  1  0  0  0  0
  8 32  1  0  0  0  0
  9 11  1  0  0  0  0
  9 33  1  0  0  0  0
  9 34  1  0  0  0  0
 10 35  1  0  0  0  0
 10 36  1  0  0  0  0
 11 37  1  0  0  0  0
 11 38  1  0  0  0  0
 12 14  1  0  0  0  0
 12 39  1  0  0  0  0
 12 40  1  0  0  0  0
 13 15  1  0  0  0  0
 13 41  1  0  0  0  0
 13 42  1  0  0  0  0
 14 16  1  0  0  0  0
 14 43  1  0  0  0  0
 14 44  1  0  0  0  0
 15 45  1  0  0  0  0
 15 46  1  0  0  0  0
 16 17  2  0  0  0  0
 16 47  1  0  0  0  0
 17 18  1  0  0  0  0
 17 19  1  0  0  0  0
 18 20  2  0  0  0  0
 18 22  1  0  0  0  0
 19 21  1  0  0  0  0
 19 23  2  0  0  0  0
 20 25  1  0  0  0  0
 21 26  2  0  0  0  0
 22 24  2  0  0  0  0
 22 48  1  0  0  0  0
 23 28  1  0  0  0  0
 23 49  1  0  0  0  0
 24 27  1  0  0  0  0
 24 30  1  0  0  0  0
 25 27  2  0  0  0  0
 25 51  1  0  0  0  0
 26 29  1  0  0  0  0
 26 52  1  0  0  0  0
 27 53  1  0  0  0  0
 28 29  2  0  0  0  0
 28 54  1  0  0  0  0
 29 55  1  0  0  0  0
M  END
> <PUBCHEM_COMPOUND_CID>
5281881

> <PUBCHEM_COMPOUND_CANONICALIZED>
1

> <PUBCHEM_CACTVS_COMPLEXITY>
591

> <PUBCHEM_CACTVS_HBOND_ACCEPTOR>
7

> <PUBCHEM_CACTVS_HBOND_DONOR>
1

> <PUBCHEM_CACTVS_ROTATABLE_BOND>
5

> <PUBCHEM_CACTVS_SUBSKEYS>
AAADceB7IYBAAAAAAAAAAAAAAAAAAAAAAAA8aIEAAAAAAACRQAAAHwQACAAADADh2BYwAYMAAgiAAiBCAAACAAAgCBAIiBgIAIgKcCKgERCUIAAggAC4iAcAgMAOEAACAAAEAAAgAAQAAAgAAAAAAAAAAA==

> <PUBCHEM_IUPAC_OPENEYE_NAME>
2-[4-[(3Z)-3-[2-(trifluoromethyl)thioxanthen-9-ylidene]propyl]piperazin-1-yl]ethanol

> <PUBCHEM_IUPAC_CAS_NAME>
2-[4-[(3Z)-3-[2-(trifluoromethyl)-9-thioxanthenylidene]propyl]-1-piperazinyl]ethanol

> <PUBCHEM_IUPAC_NAME_MARKUP>
2-[4-[(3<I>Z</I>)-3-[2-(trifluoromethyl)thioxanthen-9-ylidene]propyl]piperazin-1-yl]ethanol

> <PUBCHEM_IUPAC_NAME>
2-[4-[(3Z)-3-[2-(trifluoromethyl)thioxanthen-9-ylidene]propyl]piperazin-1-yl]ethanol

> <PUBCHEM_IUPAC_SYSTEMATIC_NAME>
2-[4-[(3Z)-3-[2-(trifluoromethyl)thioxanthen-9-ylidene]propyl]piperazin-1-yl]ethanol

> <PUBCHEM_IUPAC_TRADITIONAL_NAME>
2-[4-[(3Z)-3-[2-(trifluoromethyl)thioxanthen-9-ylidene]propyl]piperazino]ethanol

> <PUBCHEM_IUPAC_INCHI>
InChI=1S/C23H25F3N2OS/c24-23(25,26)17-7-8-22-20(16-17)18(19-4-1-2-6-21(19)30-22)5-3-9-27-10-12-28(13-11-27)14-15-29/h1-2,4-8,16,29H,3,9-15H2/b18-5-

> <PUBCHEM_IUPAC_INCHIKEY>
NJMYODHXAKYRHW-DVZOWYKESA-N

> <PUBCHEM_XLOGP3>
4.5

> <PUBCHEM_EXACT_MASS>
434.16396908

> <PUBCHEM_MOLECULAR_FORMULA>
C23H25F3N2OS

> <PUBCHEM_MOLECULAR_WEIGHT>
434.5

> <PUBCHEM_SMILES>
C1CN(CCN1CC/C=C\2/C3=CC=CC=C3SC4=C2C=C(C=C4)C(F)(F)F)CCO

> <PUBCHEM_CONNECTIVITY_SMILES>
C1CN(CCN1CCC=C2C3=CC=CC=C3SC4=C2C=C(C=C4)C(F)(F)F)CCO

> <PUBCHEM_CACTVS_TPSA>
52

> <PUBCHEM_MONOISOTOPIC_WEIGHT>
434.16396908

> <PUBCHEM_TOTAL_CHARGE>
0

> <PUBCHEM_HEAVY_ATOM_COUNT>
30

> <PUBCHEM_ATOM_DEF_STEREO_COUNT>
0

> <PUBCHEM_ATOM_UDEF_STEREO_COUNT>
0

> <PUBCHEM_BOND_DEF_STEREO_COUNT>
1

> <PUBCHEM_BOND_UDEF_STEREO_COUNT>
0

> <PUBCHEM_ISOTOPIC_ATOM_COUNT>
0

> <PUBCHEM_COMPONENT_COUNT>
1

> <PUBCHEM_CACTVS_TAUTO_COUNT>
-1

> <PUBCHEM_COORDINATE_TYPE>
1
5
255

> <PUBCHEM_BONDANNOTATIONS>
18  20  8
18  22  8
19  21  8
19  23  8
20  25  8
21  26  8
22  24  8
23  28  8
24  27  8
25  27  8
26  29  8
28  29  8

$$$$
5355
  -OEChem-08112611012D

 46 47  0     1  0  0  0  0  0999 V2000
    6.3301   -3.2609    0.0000 S   0  0  0  0  0  0  0  0  0  0  0  0
    3.7321    0.2391    0.0000 O   0  0  0  0  0  0  0  0  0  0  0  0
    2.8660   -1.2609    0.0000 O   0  0  0  0  0  0  0  0  0  0  0  0
    5.8301   -4.1269    0.0000 O   0  0  0  0  0  0  0  0  0  0  0  0
    6.8301   -2.3949    0.0000 O   0  0  0  0  0  0  0  0  0  0  0  0
    6.4347    2.7336    0.0000 N   0  0  3  0  0  0  0  0  0  0  0  0
    5.4641    0.2391    0.0000 N   0  0  0  0  0  0  0  0  0  0  0  0
    7.1962   -3.7609    0.0000 N   0  0  0  0  0  0  0  0  0  0  0  0
    6.3301    1.7391    0.0000 C   0  0  3  0  0  0  0  0  0  0  0  0
    7.2437    1.3324    0.0000 C   0  0  0  0  0  0  0  0  0  0  0  0
    7.9128    2.0755    0.0000 C   0  0  0  0  0  0  0  0  0  0  0  0
    7.4128    2.9415    0.0000 C   0  0  0  0  0  0  0  0  0  0  0  0
    5.4641    1.2391    0.0000 C   0  0  0  0  0  0  0  0  0  0  0  0
    5.6915    3.4028    0.0000 C   0  0  0  0  0  0  0  0  0  0  0  0
    5.8994    4.3809    0.0000 C   0  0  0  0  0  0  0  0  0  0  0  0
    4.5981   -0.2609    0.0000 C   0  0  0  0  0  0  0  0  0  0  0  0
    4.5981   -1.2609    0.0000 C   0  0  0  0  0  0  0  0  0  0  0  0
    5.4641   -1.7609    0.0000 C   0  0  0  0  0  0  0  0  0  0  0  0
    3.7321   -1.7609    0.0000 C   0  0  0  0  0  0  0  0  0  0  0  0
    5.4641   -2.7609    0.0000 C   0  0  0  0  0  0  0  0  0  0  0  0
    3.7321   -2.7609    0.0000 C   0  0  0  0  0  0  0  0  0  0  0  0
    4.5981   -3.2609    0.0000 C   0  0  0  0  0  0  0  0  0  0  0  0
    2.0000   -1.7609    0.0000 C   0  0  0  0  0  0  0  0  0  0  0  0
    5.8102    2.0768    0.0000 H   0  0  0  0  0  0  0  0  0  0  0  0
    6.9337    0.7954    0.0000 H   0  0  0  0  0  0  0  0  0  0  0  0
    7.7453    0.9679    0.0000 H   0  0  0  0  0  0  0  0  0  0  0  0
    8.3277    1.6148    0.0000 H   0  0  0  0  0  0  0  0  0  0  0  0
    8.4144    2.4399    0.0000 H   0  0  0  0  0  0  0  0  0  0  0  0
    7.9792    3.1937    0.0000 H   0  0  0  0  0  0  0  0  0  0  0  0
    7.2212    3.5312    0.0000 H   0  0  0  0  0  0  0  0  0  0  0  0
    5.2521    1.8217    0.0000 H   0  0  0  0  0  0  0  0  0  0  0  0
    4.8535    1.1314    0.0000 H   0  0  0  0  0  0  0  0  0  0  0  0
    5.1167    3.6350    0.0000 H   0  0  0  0  0  0  0  0  0  0  0  0
    5.3630    2.8770    0.0000 H   0  0  0  0  0  0  0  0  0  0  0  0
    6.0010   -0.0709    0.0000 H   0  0  0  0  0  0  0  0  0  0  0  0
    6.5059    4.2520    0.0000 H   0  0  0  0  0  0  0  0  0  0  0  0
    6.0283    4.9874    0.0000 H   0  0  0  0  0  0  0  0  0  0  0  0
    5.2930    4.5098    0.0000 H   0  0  0  0  0  0  0  0  0  0  0  0
    6.0010   -1.4509    0.0000 H   0  0  0  0  0  0  0  0  0  0  0  0
    3.1951   -3.0709    0.0000 H   0  0  0  0  0  0  0  0  0  0  0  0
    4.5981   -3.8809    0.0000 H   0  0  0  0  0  0  0  0  0  0  0  0
    7.1962   -4.3809    0.0000 H   0  0  0  0  0  0  0  0  0  0  0  0
    7.7331   -3.4509    0.0000 H   0  0  0  0  0  0  0  0  0  0  0  0
    1.6900   -1.2240    0.0000 H   0  0  0  0  0  0  0  0  0  0  0  0
    1.4631   -2.0709    0.0000 H   0  0  0  0  0  0  0  0  0  0  0  0
    2.3100   -2.2978    0.0000 H   0  0  0  0  0  0  0  0  0  0  0  0
  1  4  2  0  0  0  0
  1  5  2  0  0  0  0
  1  8  1  0  0  0  0
  1 20  1  0  0  0  0
  2 16  2  0  0  0  0
  3 19  1  0  0  0  0
  3 23  1  0  0  0  0
  6  9  1  0  0  0  0
  6 12  1  0  0  0  0
  6 14  1  0  0  0  0
  7 13  1  0  0  0  0
  7 16  1  0  0  0  0
  7 35  1  0  0  0  0
  8 42  1  0  0  0  0
  8 43  1  0  0  0  0
  9 10  1  0  0  0  0
  9 13  1  0  0  0  0
  9 24  1  0  0  0  0
 10 11  1  0  0  0  0
 10 25  1  0  0  0  0
 10 26  1  0  0  0  0
 11 12  1  0  0  0  0
 11 27  1  0  0  0  0
 11 28  1  0  0  0  0
 12 29  1  0  0  0  0
 12 30  1  0  0  0  0
 13 31  1  0  0  0  0
 13 32  1  0  0  0  0
 14 15  1  0  0  0  0
 14 33  1  0  0  0  0
 14 34  1  0  0  0  0
 15 36  1  0  0  0  0
 15 37  1  0  0  0  0
 15 38  1  0  0  0  0
 16 17  1  0  0  0  0
 17 18  1  0  0  0  0
 17 19  2  0  0  0  0
 18 20  2  0  0  0  0
 18 39  1  0  0  0  0
 19 21  1  0  0  0  0
 20 22  1  0  0  0  0
 21 22  2  0  0  0  0
 21 40  1  0  0  0  0
 22 41  1  0  0  0  0
 23 44  1  0  0  0  0
 23 45  1  0  0  0  0
 23 46  1  0  0  0  0
M  END
> <PUBCHEM_COMPOUND_CID>
5355

> <PUBCHEM_COMPOUND_CANONICALIZED>
1

> <PUBCHEM_CACTVS_COMPLEXITY>
505

> <PUBCHEM_CACTVS_HBOND_ACCEPTOR>
6

> <PUBCHEM_CACTVS_HBOND_DONOR>
2

> <PUBCHEM_CACTVS_ROTATABLE_BOND>
6

> <PUBCHEM_CACTVS_SUBSKEYS>
AAADceBzOABAAAAAAAAAAAAAAAAAAWAAAAAwAAAAAAAAAAABAAAAHgQQQAAADCzB2AYyB4PABAKIAiFSEHDCCBAkIAAIiJkODMgMZjaEtRuUMWhm9hGIqYeYyCCOAIAAgAAIAAABAAEAABAAAAAAAAAAAA==

> <PUBCHEM_IUPAC_OPENEYE_NAME>
N-[(1-ethylpyrrolidin-2-yl)methyl]-2-methoxy-5-sulfamoyl-benzamide

> <PUBCHEM_IUPAC_CAS_NAME>
N-[(1-ethyl-2-pyrrolidinyl)methyl]-2-methoxy-5-sulfamoylbenzamide

> <PUBCHEM_IUPAC_NAME_MARKUP>
<I>N</I>-[(1-ethylpyrrolidin-2-yl)methyl]-2-methoxy-5-sulfamoylbenzamide

> <PUBCHEM_IUPAC_NAME>
N-[(1-ethylpyrrolidin-2-yl)methyl]-2-methoxy-5-sulfamoylbenzamide

> <PUBCHEM_IUPAC_SYSTEMATIC_NAME>
N-[(1-ethylpyrrolidin-2-yl)methyl]-2-methoxy-5-sulfamoyl-benzamide

> <PUBCHEM_IUPAC_TRADITIONAL_NAME>
N-[(1-ethylpyrrolidin-2-yl)methyl]-2-methoxy-5-sulfamoyl-benzamide

> <PUBCHEM_IUPAC_INCHI>
InChI=1S/C15H23N3O4S/c1-3-18-8-4-5-11(18)10-17-15(19)13-9-12(23(16,20)21)6-7-14(13)22-2/h6-7,9,11H,3-5,8,10H2,1-2H3,(H,17,19)(H2,16,20,21)

> <PUBCHEM_IUPAC_INCHIKEY>
BGRJTUBHPOOWDU-UHFFFAOYSA-N

> <PUBCHEM_XLOGP3>
0.6

> <PUBCHEM_EXACT_MASS>
341.14092740

> <PUBCHEM_MOLECULAR_FORMULA>
C15H23N3O4S

> <PUBCHEM_MOLECULAR_WEIGHT>
341.4

> <PUBCHEM_SMILES>
CCN1CCCC1CNC(=O)C2=C(C=CC(=C2)S(=O)(=O)N)OC

> <PUBCHEM_CONNECTIVITY_SMILES>
CCN1CCCC1CNC(=O)C2=C(C=CC(=C2)S(=O)(=O)N)OC

> <PUBCHEM_CACTVS_TPSA>
110

> <PUBCHEM_MONOISOTOPIC_WEIGHT>
341.14092740

> <PUBCHEM_TOTAL_CHARGE>
0

> <PUBCHEM_HEAVY_ATOM_COUNT>
23

> <PUBCHEM_ATOM_DEF_STEREO_COUNT>
0

> <PUBCHEM_ATOM_UDEF_STEREO_COUNT>
1

> <PUBCHEM_BOND_DEF_STEREO_COUNT>
0

> <PUBCHEM_BOND_UDEF_STEREO_COUNT>
0

> <PUBCHEM_ISOTOPIC_ATOM_COUNT>
0

> <PUBCHEM_COMPONENT_COUNT>
1

> <PUBCHEM_CACTVS_TAUTO_COUNT>
-1

> <PUBCHEM_COORDINATE_TYPE>
1
5
255

> <PUBCHEM_BONDANNOTATIONS>
17  18  8
17  19  8
18  20  8
19  21  8
20  22  8
21  22  8
9  13  3

$$$$
2159
  -OEChem-08112611012D

 52 53  0     1  0  0  0  0  0999 V2000
    4.2690    1.5000    0.0000 S   0  0  0  0  0  0  0  0  0  0  0  0
    6.0010   -2.5000    0.0000 O   0  0  0  0  0  0  0  0  0  0  0  0
    4.2690   -2.5000    0.0000 O   0  0  0  0  0  0  0  0  0  0  0  0
    5.2690    1.5000    0.0000 O   0  0  0  0  0  0  0  0  0  0  0  0
    3.2690    1.5000    0.0000 O   0  0  0  0  0  0  0  0  0  0  0  0
    8.7036   -0.0055    0.0000 N   0  0  3  0  0  0  0  0  0  0  0  0
    6.8671   -1.0000    0.0000 N   0  0  0  0  0  0  0  0  0  0  0  0
    2.5369    0.5000    0.0000 N   0  0  0  0  0  0  0  0  0  0  0  0
    8.5991   -1.0000    0.0000 C   0  0  3  0  0  0  0  0  0  0  0  0
    9.5127   -1.4067    0.0000 C   0  0  0  0  0  0  0  0  0  0  0  0
   10.1818   -0.6636    0.0000 C   0  0  0  0  0  0  0  0  0  0  0  0
    9.6818    0.2024    0.0000 C   0  0  0  0  0  0  0  0  0  0  0  0
    7.7331   -1.5000    0.0000 C   0  0  0  0  0  0  0  0  0  0  0  0
    7.9605    0.6637    0.0000 C   0  0  0  0  0  0  0  0  0  0  0  0
    8.1684    1.6418    0.0000 C   0  0  0  0  0  0  0  0  0  0  0  0
    6.0010   -1.5000    0.0000 C   0  0  0  0  0  0  0  0  0  0  0  0
    5.1350   -1.0000    0.0000 C   0  0  0  0  0  0  0  0  0  0  0  0
    4.2690    0.5000    0.0000 C   0  0  0  0  0  0  0  0  0  0  0  0
    5.1350   -0.0000    0.0000 C   0  0  0  0  0  0  0  0  0  0  0  0
    4.2690   -1.5000    0.0000 C   0  0  0  0  0  0  0  0  0  0  0  0
    3.4030    0.0000    0.0000 C   0  0  0  0  0  0  0  0  0  0  0  0
    3.4030   -1.0000    0.0000 C   0  0  0  0  0  0  0  0  0  0  0  0
    4.2690    2.5000    0.0000 C   0  0  0  0  0  0  0  0  0  0  0  0
    5.1350    3.0000    0.0000 C   0  0  0  0  0  0  0  0  0  0  0  0
    3.4030   -3.0000    0.0000 C   0  0  0  0  0  0  0  0  0  0  0  0
    8.0791   -0.6623    0.0000 H   0  0  0  0  0  0  0  0  0  0  0  0
    9.2027   -1.9437    0.0000 H   0  0  0  0  0  0  0  0  0  0  0  0
   10.0142   -1.7712    0.0000 H   0  0  0  0  0  0  0  0  0  0  0  0
   10.5967   -1.1243    0.0000 H   0  0  0  0  0  0  0  0  0  0  0  0
   10.6834   -0.2992    0.0000 H   0  0  0  0  0  0  0  0  0  0  0  0
   10.2482    0.4546    0.0000 H   0  0  0  0  0  0  0  0  0  0  0  0
    9.4902    0.7921    0.0000 H   0  0  0  0  0  0  0  0  0  0  0  0
    7.3346   -1.9750    0.0000 H   0  0  0  0  0  0  0  0  0  0  0  0
    8.1316   -1.9750    0.0000 H   0  0  0  0  0  0  0  0  0  0  0  0
    7.3856    0.8959    0.0000 H   0  0  0  0  0  0  0  0  0  0  0  0
    7.6320    0.1379    0.0000 H   0  0  0  0  0  0  0  0  0  0  0  0
    6.8671   -0.3800    0.0000 H   0  0  0  0  0  0  0  0  0  0  0  0
    8.7749    1.5129    0.0000 H   0  0  0  0  0  0  0  0  0  0  0  0
    8.2973    2.2483    0.0000 H   0  0  0  0  0  0  0  0  0  0  0  0
    7.5620    1.7707    0.0000 H   0  0  0  0  0  0  0  0  0  0  0  0
    5.6720    0.3100    0.0000 H   0  0  0  0  0  0  0  0  0  0  0  0
    2.8660   -1.3100    0.0000 H   0  0  0  0  0  0  0  0  0  0  0  0
    4.0569    3.0826    0.0000 H   0  0  0  0  0  0  0  0  0  0  0  0
    3.6584    2.3923    0.0000 H   0  0  0  0  0  0  0  0  0  0  0  0
    5.4450    2.4631    0.0000 H   0  0  0  0  0  0  0  0  0  0  0  0
    5.6720    3.3100    0.0000 H   0  0  0  0  0  0  0  0  0  0  0  0
    4.8250    3.5369    0.0000 H   0  0  0  0  0  0  0  0  0  0  0  0
    2.0000    0.1900    0.0000 H   0  0  0  0  0  0  0  0  0  0  0  0
    2.5369    1.1200    0.0000 H   0  0  0  0  0  0  0  0  0  0  0  0
    3.0930   -2.4631    0.0000 H   0  0  0  0  0  0  0  0  0  0  0  0
    2.8660   -3.3100    0.0000 H   0  0  0  0  0  0  0  0  0  0  0  0
    3.7130   -3.5369    0.0000 H   0  0  0  0  0  0  0  0  0  0  0  0
  1  4  2  0  0  0  0
  1  5  2  0  0  0  0
  1 18  1  0  0  0  0
  1 23  1  0  0  0  0
  2 16  2  0  0  0  0
  3 20  1  0  0  0  0
  3 25  1  0  0  0  0
  6  9  1  0  0  0  0
  6 12  1  0  0  0  0
  6 14  1  0  0  0  0
  7 13  1  0  0  0  0
  7 16  1  0  0  0  0
  7 37  1  0  0  0  0
  8 21  1  0  0  0  0
  8 48  1  0  0  0  0
  8 49  1  0  0  0  0
  9 10  1  0  0  0  0
  9 13  1  0  0  0  0
  9 26  1  0  0  0  0
 10 11  1  0  0  0  0
 10 27  1  0  0  0  0
 10 28  1  0  0  0  0
 11 12  1  0  0  0  0
 11 29  1  0  0  0  0
 11 30  1  0  0  0  0
 12 31  1  0  0  0  0
 12 32  1  0  0  0  0
 13 33  1  0  0  0  0
 13 34  1  0  0  0  0
 14 15  1  0  0  0  0
 14 35  1  0  0  0  0
 14 36  1  0  0  0  0
 15 38  1  0  0  0  0
 15 39  1  0  0  0  0
 15 40  1  0  0  0  0
 16 17  1  0  0  0  0
 17 19  2  0  0  0  0
 17 20  1  0  0  0  0
 18 19  1  0  0  0  0
 18 21  2  0  0  0  0
 19 41  1  0  0  0  0
 20 22  2  0  0  0  0
 21 22  1  0  0  0  0
 22 42  1  0  0  0  0
 23 24  1  0  0  0  0
 23 43  1  0  0  0  0
 23 44  1  0  0  0  0
 24 45  1  0  0  0  0
 24 46  1  0  0  0  0
 24 47  1  0  0  0  0
 25 50  1  0  0  0  0
 25 51  1  0  0  0  0
 25 52  1  0  0  0  0
M  END
> <PUBCHEM_COMPOUND_CID>
2159

> <PUBCHEM_COMPOUND_CANONICALIZED>
1

> <PUBCHEM_CACTVS_COMPLEXITY>
549

> <PUBCHEM_CACTVS_HBOND_ACCEPTOR>
6

> <PUBCHEM_CACTVS_HBOND_DONOR>
2

> <PUBCHEM_CACTVS_ROTATABLE_BOND>
7

> <PUBCHEM_CACTVS_SUBSKEYS>
AAADceB7OABAAAAAAAAAAAAAAAAAAWAAAAAwAAAAAAAAAAABAAAAHgQQAAAADCzF2Aayx4PABAqIAiVSUHDCCAAkKhAAiJ0ObMgMZjaktJuUMWhm9hmo6YeY2SGeCIAAggAIAQARAAEEABACAAAAAAAAAA==

> <PUBCHEM_IUPAC_OPENEYE_NAME>
4-amino-N-[(1-ethylpyrrolidin-2-yl)methyl]-5-ethylsulfonyl-2-methoxy-benzamide

> <PUBCHEM_IUPAC_CAS_NAME>
4-amino-N-[(1-ethyl-2-pyrrolidinyl)methyl]-5-ethylsulfonyl-2-methoxybenzamide

> <PUBCHEM_IUPAC_NAME_MARKUP>
4-amino-<I>N</I>-[(1-ethylpyrrolidin-2-yl)methyl]-5-ethylsulfonyl-2-methoxybenzamide

> <PUBCHEM_IUPAC_NAME>
4-amino-N-[(1-ethylpyrrolidin-2-yl)methyl]-5-ethylsulfonyl-2-methoxybenzamide

> <PUBCHEM_IUPAC_SYSTEMATIC_NAME>
4-azanyl-N-[(1-ethylpyrrolidin-2-yl)methyl]-5-ethylsulfonyl-2-methoxy-benzamide

> <PUBCHEM_IUPAC_TRADITIONAL_NAME>
4-amino-5-esyl-N-[(1-ethylpyrrolidin-2-yl)methyl]-2-methoxy-benzamide

> <PUBCHEM_IUPAC_INCHI>
InChI=1S/C17H27N3O4S/c1-4-20-8-6-7-12(20)11-19-17(21)13-9-16(25(22,23)5-2)14(18)10-15(13)24-3/h9-10,12H,4-8,11,18H2,1-3H3,(H,19,21)

> <PUBCHEM_IUPAC_INCHIKEY>
NTJOBXMMWNYJFB-UHFFFAOYSA-N

> <PUBCHEM_XLOGP3>
1.5

> <PUBCHEM_EXACT_MASS>
369.17222752

> <PUBCHEM_MOLECULAR_FORMULA>
C17H27N3O4S

> <PUBCHEM_MOLECULAR_WEIGHT>
369.5

> <PUBCHEM_SMILES>
CCN1CCCC1CNC(=O)C2=CC(=C(C=C2OC)N)S(=O)(=O)CC

> <PUBCHEM_CONNECTIVITY_SMILES>
CCN1CCCC1CNC(=O)C2=CC(=C(C=C2OC)N)S(=O)(=O)CC

> <PUBCHEM_CACTVS_TPSA>
110

> <PUBCHEM_MONOISOTOPIC_WEIGHT>
369.17222752

> <PUBCHEM_TOTAL_CHARGE>
0

> <PUBCHEM_HEAVY_ATOM_COUNT>
25

> <PUBCHEM_ATOM_DEF_STEREO_COUNT>
0

> <PUBCHEM_ATOM_UDEF_STEREO_COUNT>
1

> <PUBCHEM_BOND_DEF_STEREO_COUNT>
0

> <PUBCHEM_BOND_UDEF_STEREO_COUNT>
0

> <PUBCHEM_ISOTOPIC_ATOM_COUNT>
0

> <PUBCHEM_COMPONENT_COUNT>
1

> <PUBCHEM_CACTVS_TAUTO_COUNT>
-1

> <PUBCHEM_COORDINATE_TYPE>
1
5
255

> <PUBCHEM_BONDANNOTATIONS>
17  19  8
17  20  8
18  19  8
18  21  8
20  22  8
21  22  8
9  13  3

$$$$
23897
  -OEChem-08112611012D

 44 46  0     1  0  0  0  0  0999 V2000
    2.0000   -0.8030    0.0000 O   0  0  0  0  0  0  0  0  0  0  0  0
    6.3301    1.6970    0.0000 O   0  0  0  0  0  0  0  0  0  0  0  0
    3.7321    0.1970    0.0000 N   0  0  0  0  0  0  0  0  0  0  0  0
    8.1424   -1.1077    0.0000 N   0  0  0  0  0  0  0  0  0  0  0  0
    5.4641    0.1970    0.0000 C   0  0  3  0  0  0  0  0  0  0  0  0
    5.4641   -0.8030    0.0000 C   0  0  0  0  0  0  0  0  0  0  0  0
    4.5981    0.6970    0.0000 C   0  0  0  0  0  0  0  0  0  0  0  0
    6.3301   -1.3030    0.0000 C   0  0  0  0  0  0  0  0  0  0  0  0
    7.1962    0.1970    0.0000 C   0  0  0  0  0  0  0  0  0  0  0  0
    7.1962   -0.8030    0.0000 C   0  0  0  0  0  0  0  0  0  0  0  0
    6.3301    0.6970    0.0000 C   0  0  0  0  0  0  0  0  0  0  0  0
    8.1424    0.5018    0.0000 C   0  0  0  0  0  0  0  0  0  0  0  0
    3.7321   -0.8030    0.0000 C   0  0  0  0  0  0  0  0  0  0  0  0
    2.8660    0.6970    0.0000 C   0  0  0  0  0  0  0  0  0  0  0  0
    8.7260   -0.3030    0.0000 C   0  0  0  0  0  0  0  0  0  0  0  0
    2.8660   -1.3030    0.0000 C   0  0  0  0  0  0  0  0  0  0  0  0
    2.0000    0.1970    0.0000 C   0  0  0  0  0  0  0  0  0  0  0  0
    8.4530    1.4523    0.0000 C   0  0  0  0  0  0  0  0  0  0  0  0
    9.7260   -0.3030    0.0000 C   0  0  0  0  0  0  0  0  0  0  0  0
    9.4315    1.6585    0.0000 C   0  0  0  0  0  0  0  0  0  0  0  0
    5.4641    0.8170    0.0000 H   0  0  0  0  0  0  0  0  0  0  0  0
    4.8535   -0.6953    0.0000 H   0  0  0  0  0  0  0  0  0  0  0  0
    5.2521   -1.3856    0.0000 H   0  0  0  0  0  0  0  0  0  0  0  0
    4.9966    1.1720    0.0000 H   0  0  0  0  0  0  0  0  0  0  0  0
    4.1996    1.1720    0.0000 H   0  0  0  0  0  0  0  0  0  0  0  0
    5.9316   -1.7779    0.0000 H   0  0  0  0  0  0  0  0  0  0  0  0
    6.7287   -1.7779    0.0000 H   0  0  0  0  0  0  0  0  0  0  0  0
    3.9441   -1.3856    0.0000 H   0  0  0  0  0  0  0  0  0  0  0  0
    4.3426   -0.6953    0.0000 H   0  0  0  0  0  0  0  0  0  0  0  0
    3.2646    1.1720    0.0000 H   0  0  0  0  0  0  0  0  0  0  0  0
    2.4675    1.1720    0.0000 H   0  0  0  0  0  0  0  0  0  0  0  0
    8.3350   -1.6970    0.0000 H   0  0  0  0  0  0  0  0  0  0  0  0
    2.4675   -1.7779    0.0000 H   0  0  0  0  0  0  0  0  0  0  0  0
    3.2646   -1.7779    0.0000 H   0  0  0  0  0  0  0  0  0  0  0  0
    1.7880    0.7796    0.0000 H   0  0  0  0  0  0  0  0  0  0  0  0
    1.3894    0.0894    0.0000 H   0  0  0  0  0  0  0  0  0  0  0  0
    8.4325    2.0719    0.0000 H   0  0  0  0  0  0  0  0  0  0  0  0
    7.8392    1.5396    0.0000 H   0  0  0  0  0  0  0  0  0  0  0  0
    9.7260   -0.9230    0.0000 H   0  0  0  0  0  0  0  0  0  0  0  0
   10.3460   -0.3030    0.0000 H   0  0  0  0  0  0  0  0  0  0  0  0
    9.7260    0.3170    0.0000 H   0  0  0  0  0  0  0  0  0  0  0  0
    9.5594    1.0518    0.0000 H   0  0  0  0  0  0  0  0  0  0  0  0
   10.0382    1.7864    0.0000 H   0  0  0  0  0  0  0  0  0  0  0  0
    9.3037    2.2652    0.0000 H   0  0  0  0  0  0  0  0  0  0  0  0
  1 16  1  0  0  0  0
  1 17  1  0  0  0  0
  2 11  2  0  0  0  0
  3  7  1  0  0  0  0
  3 13  1  0  0  0  0
  3 14  1  0  0  0  0
  4 10  1  0  0  0  0
  4 15  1  0  0  0  0
  4 32  1  0  0  0  0
  5  6  1  0  0  0  0
  5  7  1  0  0  0  0
  5 11  1  0  0  0  0
  5 21  1  0  0  0  0
  6  8  1  0  0  0  0
  6 22  1  0  0  0  0
  6 23  1  0  0  0  0
  7 24  1  0  0  0  0
  7 25  1  0  0  0  0
  8 10  1  0  0  0  0
  8 26  1  0  0  0  0
  8 27  1  0  0  0  0
  9 10  2  0  0  0  0
  9 11  1  0  0  0  0
  9 12  1  0  0  0  0
 12 15  2  0  0  0  0
 12 18  1  0  0  0  0
 13 16  1  0  0  0  0
 13 28  1  0  0  0  0
 13 29  1  0  0  0  0
 14 17  1  0  0  0  0
 14 30  1  0  0  0  0
 14 31  1  0  0  0  0
 15 19  1  0  0  0  0
 16 33  1  0  0  0  0
 16 34  1  0  0  0  0
 17 35  1  0  0  0  0
 17 36  1  0  0  0  0
 18 20  1  0  0  0  0
 18 37  1  0  0  0  0
 18 38  1  0  0  0  0
 19 39  1  0  0  0  0
 19 40  1  0  0  0  0
 19 41  1  0  0  0  0
 20 42  1  0  0  0  0
 20 43  1  0  0  0  0
 20 44  1  0  0  0  0
M  END
> <PUBCHEM_COMPOUND_CID>
23897

> <PUBCHEM_COMPOUND_CANONICALIZED>
1

> <PUBCHEM_CACTVS_COMPLEXITY>
354

> <PUBCHEM_CACTVS_HBOND_ACCEPTOR>
3

> <PUBCHEM_CACTVS_HBOND_DONOR>
1

> <PUBCHEM_CACTVS_ROTATABLE_BOND>
3

> <PUBCHEM_CACTVS_SUBSKEYS>
AAADceB7MAAAAAAAAAAAAAAAAAAAAWAAAAA8QAAAAAAAAFgBgAAAHgAQAAAADQzhngYCgJPJlACoA4RwRACCgCAlACAAmSE4RNgKIHrAlJGHAYhgkADYyUccicCegAAAAAAAAAAQAAQAAAQAAAAAAAAAAA==

> <PUBCHEM_IUPAC_OPENEYE_NAME>
3-ethyl-2-methyl-5-(morpholinomethyl)-1,5,6,7-tetrahydroindol-4-one

> <PUBCHEM_IUPAC_CAS_NAME>
3-ethyl-2-methyl-5-(4-morpholinylmethyl)-1,5,6,7-tetrahydroindol-4-one

> <PUBCHEM_IUPAC_NAME_MARKUP>
3-ethyl-2-methyl-5-(morpholin-4-ylmethyl)-1,5,6,7-tetrahydroindol-4-one

> <PUBCHEM_IUPAC_NAME>
3-ethyl-2-methyl-5-(morpholin-4-ylmethyl)-1,5,6,7-tetrahydroindol-4-one

> <PUBCHEM_IUPAC_SYSTEMATIC_NAME>
3-ethyl-2-methyl-5-(morpholin-4-ylmethyl)-1,5,6,7-tetrahydroindol-4-one

> <PUBCHEM_IUPAC_TRADITIONAL_NAME>
3-ethyl-2-methyl-5-(morpholinomethyl)-1,5,6,7-tetrahydroindol-4-one

> <PUBCHEM_IUPAC_INCHI>
InChI=1S/C16H24N2O2/c1-3-13-11(2)17-14-5-4-12(16(19)15(13)14)10-18-6-8-20-9-7-18/h12,17H,3-10H2,1-2H3

> <PUBCHEM_IUPAC_INCHIKEY>
KLPWJLBORRMFGK-UHFFFAOYSA-N

> <PUBCHEM_XLOGP3_AA>
1.7

> <PUBCHEM_EXACT_MASS>
276.183778013

> <PUBCHEM_MOLECULAR_FORMULA>
C16H24N2O2

> <PUBCHEM_MOLECULAR_WEIGHT>
276.37

> <PUBCHEM_SMILES>
CCC1=C(NC2=C1C(=O)C(CC2)CN3CCOCC3)C

> <PUBCHEM_CONNECTIVITY_SMILES>
CCC1=C(NC2=C1C(=O)C(CC2)CN3CCOCC3)C

> <PUBCHEM_CACTVS_TPSA>
45.3

> <PUBCHEM_MONOISOTOPIC_WEIGHT>
276.183778013

> <PUBCHEM_TOTAL_CHARGE>
0

> <PUBCHEM_HEAVY_ATOM_COUNT>
20

> <PUBCHEM_ATOM_DEF_STEREO_COUNT>
0

> <PUBCHEM_ATOM_UDEF_STEREO_COUNT>
1

> <PUBCHEM_BOND_DEF_STEREO_COUNT>
0

> <PUBCHEM_BOND_UDEF_STEREO_COUNT>
0

> <PUBCHEM_ISOTOPIC_ATOM_COUNT>
0

> <PUBCHEM_COMPONENT_COUNT>
1

> <PUBCHEM_CACTVS_TAUTO_COUNT>
-1

> <PUBCHEM_COORDINATE_TYPE>
1
5
255

> <PUBCHEM_BONDANNOTATIONS>
12  15  8
4  10  8
4  15  8
5  7  3
9  10  8
9  12  8

$$$$
163091
  -OEChem-08112611012D

 36 39  0     1  0  0  0  0  0999 V2000
    7.9254   -1.3034    0.0000 Cl  0  0  0  0  0  0  0  0  0  0  0  0
    5.0438    1.5572    0.0000 O   0  0  0  0  0  0  0  0  0  0  0  0
    3.4295   -1.7948    0.0000 N   0  0  3  0  0  0  0  0  0  0  0  0
    4.5438   -0.6334    0.0000 C   0  0  2  0  0  0  0  0  0  0  0  0
    3.6428   -0.1995    0.0000 C   0  0  2  0  0  0  0  0  0  0  0  0
    4.4078   -1.6182    0.0000 C   0  0  0  0  0  0  0  0  0  0  0  0
    2.9577   -0.9198    0.0000 C   0  0  0  0  0  0  0  0  0  0  0  0
    5.4447   -0.1995    0.0000 C   0  0  0  0  0  0  0  0  0  0  0  0
    3.4203    0.7754    0.0000 C   0  0  0  0  0  0  0  0  0  0  0  0
    2.9956   -2.6958    0.0000 C   0  0  0  0  0  0  0  0  0  0  0  0
    5.6673    0.7754    0.0000 C   0  0  0  0  0  0  0  0  0  0  0  0
    4.0438    1.5572    0.0000 C   0  0  0  0  0  0  0  0  0  0  0  0
    6.1973   -0.9197    0.0000 C   0  0  0  0  0  0  0  0  0  0  0  0
    2.3880    0.9147    0.0000 C   0  0  0  0  0  0  0  0  0  0  0  0
    6.6578    1.0977    0.0000 C   0  0  0  0  0  0  0  0  0  0  0  0
    3.6782    2.5326    0.0000 C   0  0  0  0  0  0  0  0  0  0  0  0
    7.1950   -0.6204    0.0000 C   0  0  0  0  0  0  0  0  0  0  0  0
    2.0000    1.8814    0.0000 C   0  0  0  0  0  0  0  0  0  0  0  0
    7.4268    0.3951    0.0000 C   0  0  0  0  0  0  0  0  0  0  0  0
    2.6495    2.6958    0.0000 C   0  0  0  0  0  0  0  0  0  0  0  0
    5.2308   -1.1339    0.0000 H   0  0  0  0  0  0  0  0  0  0  0  0
    2.8231    0.0255    0.0000 H   0  0  0  0  0  0  0  0  0  0  0  0
    4.4532   -2.2365    0.0000 H   0  0  0  0  0  0  0  0  0  0  0  0
    5.0275   -1.6380    0.0000 H   0  0  0  0  0  0  0  0  0  0  0  0
    2.5559   -0.4477    0.0000 H   0  0  0  0  0  0  0  0  0  0  0  0
    2.4459   -1.2698    0.0000 H   0  0  0  0  0  0  0  0  0  0  0  0
    2.4370   -2.4268    0.0000 H   0  0  0  0  0  0  0  0  0  0  0  0
    2.7266   -3.2544    0.0000 H   0  0  0  0  0  0  0  0  0  0  0  0
    3.5542   -2.9648    0.0000 H   0  0  0  0  0  0  0  0  0  0  0  0
    6.0524   -1.5225    0.0000 H   0  0  0  0  0  0  0  0  0  0  0  0
    2.0071    0.4256    0.0000 H   0  0  0  0  0  0  0  0  0  0  0  0
    6.7887    1.7037    0.0000 H   0  0  0  0  0  0  0  0  0  0  0  0
    4.0704    3.0128    0.0000 H   0  0  0  0  0  0  0  0  0  0  0  0
    1.3866    1.9714    0.0000 H   0  0  0  0  0  0  0  0  0  0  0  0
    8.0185    0.5802    0.0000 H   0  0  0  0  0  0  0  0  0  0  0  0
    2.4252    3.2738    0.0000 H   0  0  0  0  0  0  0  0  0  0  0  0
  1 17  1  0  0  0  0
  2 11  1  0  0  0  0
  2 12  1  0  0  0  0
  3  6  1  0  0  0  0
  3  7  1  0  0  0  0
  3 10  1  0  0  0  0
  4  5  1  0  0  0  0
  4  6  1  0  0  0  0
  4  8  1  0  0  0  0
  4 21  1  6  0  0  0
  5  7  1  0  0  0  0
  5  9  1  0  0  0  0
  5 22  1  1  0  0  0
  6 23  1  0  0  0  0
  6 24  1  0  0  0  0
  7 25  1  0  0  0  0
  7 26  1  0  0  0  0
  8 11  2  0  0  0  0
  8 13  1  0  0  0  0
  9 12  1  0  0  0  0
  9 14  2  0  0  0  0
 10 27  1  0  0  0  0
 10 28  1  0  0  0  0
 10 29  1  0  0  0  0
 11 15  1  0  0  0  0
 12 16  2  0  0  0  0
 13 17  2  0  0  0  0
 13 30  1  0  0  0  0
 14 18  1  0  0  0  0
 14 31  1  0  0  0  0
 15 19  2  0  0  0  0
 15 32  1  0  0  0  0
 16 20  1  0  0  0  0
 16 33  1  0  0  0  0
 17 19  1  0  0  0  0
 18 20  2  0  0  0  0
 18 34  1  0  0  0  0
 19 35  1  0  0  0  0
 20 36  1  0  0  0  0
M  END
> <PUBCHEM_COMPOUND_CID>
163091

> <PUBCHEM_COMPOUND_CANONICALIZED>
1

> <PUBCHEM_CACTVS_COMPLEXITY>
363

> <PUBCHEM_CACTVS_HBOND_ACCEPTOR>
2

> <PUBCHEM_CACTVS_HBOND_DONOR>
0

> <PUBCHEM_CACTVS_ROTATABLE_BOND>
0

> <PUBCHEM_CACTVS_SUBSKEYS>
AAADceB6IAAEAAAAAAAAAAAAAAAAAWAAAAAwYAAABIAAAACxQAAAHgIAAAAADQbBmCQyBoMABACAAiBCAAACCAAgJQAIiAAOCogMJiKFsxuGOCCkwBGIqAew0PIOgCAAIAAIAAAAQABAABAAAAAAAAAAAA==

> <PUBCHEM_IUPAC_OPENEYE_NAME>
(2S,6S)-9-chloro-4-methyl-13-oxa-4-azatetracyclo[12.4.0.02,6.07,12]octadeca-1(18),7(12),8,10,14,16-hexaene

> <PUBCHEM_IUPAC_CAS_NAME>
(2S,6S)-9-chloro-4-methyl-13-oxa-4-azatetracyclo[12.4.0.02,6.07,12]octadeca-1(18),7(12),8,10,14,16-hexaene

> <PUBCHEM_IUPAC_NAME_MARKUP>
(2<I>S</I>,6<I>S</I>)-9-chloro-4-methyl-13-oxa-4-azatetracyclo[12.4.0.0<SUP>2,6</SUP>.0<SUP>7,12</SUP>]octadeca-1(18),7(12),8,10,14,16-hexaene

> <PUBCHEM_IUPAC_NAME>
(2S,6S)-9-chloro-4-methyl-13-oxa-4-azatetracyclo[12.4.0.02,6.07,12]octadeca-1(18),7(12),8,10,14,16-hexaene

> <PUBCHEM_IUPAC_SYSTEMATIC_NAME>
(2S,6S)-9-chloranyl-4-methyl-13-oxa-4-azatetracyclo[12.4.0.02,6.07,12]octadeca-1(18),7(12),8,10,14,16-hexaene

> <PUBCHEM_IUPAC_TRADITIONAL_NAME>
(2S,6S)-9-chloro-4-methyl-13-oxa-4-azatetracyclo[12.4.0.02,6.07,12]octadeca-1(18),7(12),8,10,14,16-hexaene

> <PUBCHEM_IUPAC_INCHI>
InChI=1S/C17H16ClNO/c1-19-9-14-12-4-2-3-5-16(12)20-17-7-6-11(18)8-13(17)15(14)10-19/h2-8,14-15H,9-10H2,1H3/t14-,15-/m1/s1

> <PUBCHEM_IUPAC_INCHIKEY>
VSWBSWWIRNCQIJ-HUUCEWRRSA-N

> <PUBCHEM_XLOGP3_AA>
3.8

> <PUBCHEM_EXACT_MASS>
285.0920418

> <PUBCHEM_MOLECULAR_FORMULA>
C17H16ClNO

> <PUBCHEM_MOLECULAR_WEIGHT>
285.8

> <PUBCHEM_SMILES>
CN1C[C@H]2[C@H](C1)C3=C(C=CC(=C3)Cl)OC4=CC=CC=C24

> <PUBCHEM_CONNECTIVITY_SMILES>
CN1CC2C(C1)C3=C(C=CC(=C3)Cl)OC4=CC=CC=C24

> <PUBCHEM_CACTVS_TPSA>
12.5

> <PUBCHEM_MONOISOTOPIC_WEIGHT>
285.0920418

> <PUBCHEM_TOTAL_CHARGE>
0

> <PUBCHEM_HEAVY_ATOM_COUNT>
20

> <PUBCHEM_ATOM_DEF_STEREO_COUNT>
2

> <PUBCHEM_ATOM_UDEF_STEREO_COUNT>
0

> <PUBCHEM_BOND_DEF_STEREO_COUNT>
0

> <PUBCHEM_BOND_UDEF_STEREO_COUNT>
0

> <PUBCHEM_ISOTOPIC_ATOM_COUNT>
0

> <PUBCHEM_COMPONENT_COUNT>
1

> <PUBCHEM_CACTVS_TAUTO_COUNT>
-1

> <PUBCHEM_COORDINATE_TYPE>
1
5
255

> <PUBCHEM_BONDANNOTATIONS>
11  15  8
12  16  8
13  17  8
14  18  8
15  19  8
16  20  8
17  19  8
18  20  8
4  21  6
5  22  5
8  11  8
8  13  8
9  12  8
9  14  8

$$$$
213046
  -OEChem-08112611012D

 71 77  0     1  0  0  0  0  0999 V2000
   13.6273   -2.9906    0.0000 S   0  0  0  0  0  0  0  0  0  0  0  0
    4.9260   -1.1594    0.0000 O   0  0  0  0  0  0  0  0  0  0  0  0
    6.1267    2.1394    0.0000 O   0  0  0  0  0  0  0  0  0  0  0  0
    5.7829    0.3966    0.0000 N   0  0  0  0  0  0  0  0  0  0  0  0
    9.5416   -0.9714    0.0000 N   0  0  0  0  0  0  0  0  0  0  0  0
   11.4210   -1.6555    0.0000 N   0  0  0  0  0  0  0  0  0  0  0  0
   12.6339   -2.9533    0.0000 N   0  0  0  0  0  0  0  0  0  0  0  0
    2.8016    1.0420    0.0000 C   0  0  1  0  0  0  0  0  0  0  0  0
    2.5428    2.0080    0.0000 C   0  0  2  0  0  0  0  0  0  0  0  0
    4.1743    0.4500    0.0000 C   0  0  1  0  0  0  0  0  0  0  0  0
    4.5163    1.3897    0.0000 C   0  0  2  0  0  0  0  0  0  0  0  0
    3.2794    2.9906    0.0000 C   0  0  0  0  0  0  0  0  0  0  0  0
    1.4026    0.5332    0.0000 C   0  0  0  0  0  0  0  0  0  0  0  0
    1.1438    1.4992    0.0000 C   0  0  0  0  0  0  0  0  0  0  0  0
    4.9592   -0.1600    0.0000 C   0  0  0  0  0  0  0  0  0  0  0  0
    5.5097    1.3524    0.0000 C   0  0  0  0  0  0  0  0  0  0  0  0
    6.7225    0.0546    0.0000 C   0  0  0  0  0  0  0  0  0  0  0  0
    7.4886    0.6974    0.0000 C   0  0  1  0  0  0  0  0  0  0  0  0
    8.4283    0.3554    0.0000 C   0  0  1  0  0  0  0  0  0  0  0  0
    7.3149    1.6822    0.0000 C   0  0  0  0  0  0  0  0  0  0  0  0
    9.1943    0.9982    0.0000 C   0  0  0  0  0  0  0  0  0  0  0  0
    8.0810    2.3250    0.0000 C   0  0  0  0  0  0  0  0  0  0  0  0
    8.6019   -0.6294    0.0000 C   0  0  0  0  0  0  0  0  0  0  0  0
    9.0207    1.9830    0.0000 C   0  0  0  0  0  0  0  0  0  0  0  0
    9.7153   -1.9563    0.0000 C   0  0  0  0  0  0  0  0  0  0  0  0
   10.3077   -0.3287    0.0000 C   0  0  0  0  0  0  0  0  0  0  0  0
   10.6550   -2.2983    0.0000 C   0  0  0  0  0  0  0  0  0  0  0  0
   11.2474   -0.6707    0.0000 C   0  0  0  0  0  0  0  0  0  0  0  0
   12.3607   -1.9975    0.0000 C   0  0  0  0  0  0  0  0  0  0  0  0
   13.1843   -1.4409    0.0000 C   0  0  0  0  0  0  0  0  0  0  0  0
   13.9713   -2.0579    0.0000 C   0  0  0  0  0  0  0  0  0  0  0  0
   13.3252   -0.4509    0.0000 C   0  0  0  0  0  0  0  0  0  0  0  0
   14.8991   -1.6849    0.0000 C   0  0  0  0  0  0  0  0  0  0  0  0
   14.2531   -0.0779    0.0000 C   0  0  0  0  0  0  0  0  0  0  0  0
   15.0400   -0.6949    0.0000 C   0  0  0  0  0  0  0  0  0  0  0  0
    3.0216    0.2210    0.0000 H   0  0  0  0  0  0  0  0  0  0  0  0
    2.3228    2.8290    0.0000 H   0  0  0  0  0  0  0  0  0  0  0  0
    3.8836   -0.3487    0.0000 H   0  0  0  0  0  0  0  0  0  0  0  0
    4.8070    2.1885    0.0000 H   0  0  0  0  0  0  0  0  0  0  0  0
    2.9616    3.5229    0.0000 H   0  0  0  0  0  0  0  0  0  0  0  0
    3.8925    3.0825    0.0000 H   0  0  0  0  0  0  0  0  0  0  0  0
    1.5976   -0.0553    0.0000 H   0  0  0  0  0  0  0  0  0  0  0  0
    0.8087    0.3555    0.0000 H   0  0  0  0  0  0  0  0  0  0  0  0
    0.5498    1.3214    0.0000 H   0  0  0  0  0  0  0  0  0  0  0  0
    0.9489    2.0877    0.0000 H   0  0  0  0  0  0  0  0  0  0  0  0
    7.1975   -0.3439    0.0000 H   0  0  0  0  0  0  0  0  0  0  0  0
    6.4125   -0.4823    0.0000 H   0  0  0  0  0  0  0  0  0  0  0  0
    7.5963    0.0868    0.0000 H   0  0  0  0  0  0  0  0  0  0  0  0
    9.0109    0.1433    0.0000 H   0  0  0  0  0  0  0  0  0  0  0  0
    6.7323    1.4702    0.0000 H   0  0  0  0  0  0  0  0  0  0  0  0
    7.0049    2.2192    0.0000 H   0  0  0  0  0  0  0  0  0  0  0  0
    9.7769    1.2102    0.0000 H   0  0  0  0  0  0  0  0  0  0  0  0
    9.5043    0.4612    0.0000 H   0  0  0  0  0  0  0  0  0  0  0  0
    7.6060    2.7235    0.0000 H   0  0  0  0  0  0  0  0  0  0  0  0
    8.3910    2.8619    0.0000 H   0  0  0  0  0  0  0  0  0  0  0  0
    8.4943   -1.2400    0.0000 H   0  0  0  0  0  0  0  0  0  0  0  0
    7.9819   -0.6294    0.0000 H   0  0  0  0  0  0  0  0  0  0  0  0
    9.1283    2.5936    0.0000 H   0  0  0  0  0  0  0  0  0  0  0  0
    9.6407    1.9830    0.0000 H   0  0  0  0  0  0  0  0  0  0  0  0
    9.6076   -2.5668    0.0000 H   0  0  0  0  0  0  0  0  0  0  0  0
    9.0953   -1.9563    0.0000 H   0  0  0  0  0  0  0  0  0  0  0  0
    9.8327    0.0699    0.0000 H   0  0  0  0  0  0  0  0  0  0  0  0
   10.6177    0.2083    0.0000 H   0  0  0  0  0  0  0  0  0  0  0  0
   11.1299   -2.6968    0.0000 H   0  0  0  0  0  0  0  0  0  0  0  0
   10.3450   -2.8352    0.0000 H   0  0  0  0  0  0  0  0  0  0  0  0
   11.3550   -0.0601    0.0000 H   0  0  0  0  0  0  0  0  0  0  0  0
   11.8674   -0.6707    0.0000 H   0  0  0  0  0  0  0  0  0  0  0  0
   12.8373   -0.0683    0.0000 H   0  0  0  0  0  0  0  0  0  0  0  0
   15.3870   -2.0675    0.0000 H   0  0  0  0  0  0  0  0  0  0  0  0
   14.3404    0.5359    0.0000 H   0  0  0  0  0  0  0  0  0  0  0  0
   15.6153   -0.4636    0.0000 H   0  0  0  0  0  0  0  0  0  0  0  0
  1  7  1  0  0  0  0
  1 31  1  0  0  0  0
  2 15  2  0  0  0  0
  3 16  2  0  0  0  0
  4 15  1  0  0  0  0
  4 16  1  0  0  0  0
  4 17  1  0  0  0  0
  5 23  1  0  0  0  0
  5 25  1  0  0  0  0
  5 26  1  0  0  0  0
  6 27  1  0  0  0  0
  6 28  1  0  0  0  0
  6 29  1  0  0  0  0
  7 29  2  0  0  0  0
  8 10  1  0  0  0  0
  8 12  1  0  0  0  0
  8 13  1  0  0  0  0
  8 36  1  1  0  0  0
  9 11  1  0  0  0  0
  9 12  1  0  0  0  0
  9 14  1  0  0  0  0
  9 37  1  6  0  0  0
 10 11  1  0  0  0  0
 10 15  1  0  0  0  0
 10 38  1  6  0  0  0
 11 16  1  0  0  0  0
 11 39  1  6  0  0  0
 12 40  1  0  0  0  0
 12 41  1  0  0  0  0
 13 14  1  0  0  0  0
 13 42  1  0  0  0  0
 13 43  1  0  0  0  0
 14 44  1  0  0  0  0
 14 45  1  0  0  0  0
 18 17  1  6  0  0  0
 17 46  1  0  0  0  0
 17 47  1  0  0  0  0
 18 19  1  0  0  0  0
 18 20  1  0  0  0  0
 18 48  1  0  0  0  0
 19 21  1  0  0  0  0
 19 23  1  1  0  0  0
 19 49  1  0  0  0  0
 20 22  1  0  0  0  0
 20 50  1  0  0  0  0
 20 51  1  0  0  0  0
 21 24  1  0  0  0  0
 21 52  1  0  0  0  0
 21 53  1  0  0  0  0
 22 24  1  0  0  0  0
 22 54  1  0  0  0  0
 22 55  1  0  0  0  0
 23 56  1  0  0  0  0
 23 57  1  0  0  0  0
 24 58  1  0  0  0  0
 24 59  1  0  0  0  0
 25 27  1  0  0  0  0
 25 60  1  0  0  0  0
 25 61  1  0  0  0  0
 26 28  1  0  0  0  0
 26 62  1  0  0  0  0
 26 63  1  0  0  0  0
 27 64  1  0  0  0  0
 27 65  1  0  0  0  0
 28 66  1  0  0  0  0
 28 67  1  0  0  0  0
 29 30  1  0  0  0  0
 30 31  1  0  0  0  0
 30 32  2  0  0  0  0
 31 33  2  0  0  0  0
 32 34  1  0  0  0  0
 32 68  1  0  0  0  0
 33 35  1  0  0  0  0
 33 69  1  0  0  0  0
 34 35  2  0  0  0  0
 34 70  1  0  0  0  0
 35 71  1  0  0  0  0
M  END
> <PUBCHEM_COMPOUND_CID>
213046

> <PUBCHEM_COMPOUND_CANONICALIZED>
1

> <PUBCHEM_CACTVS_COMPLEXITY>
804

> <PUBCHEM_CACTVS_HBOND_ACCEPTOR>
6

> <PUBCHEM_CACTVS_HBOND_DONOR>
0

> <PUBCHEM_CACTVS_ROTATABLE_BOND>
5

> <PUBCHEM_CACTVS_SUBSKEYS>
AAADcfB7sABAAAAAAAAAAAAAAAAAAePECAA8YMEAAAAWAFgB8AAAHgQAQAAADQDB2gQxsdMAAACsAiNycACDABAhAABJmDkoRJiIYLLAmZGUIAxghiLIyAcdiMCOgAAAAAAEAAAAAAQAACgAAQAACAAAAA==

> <PUBCHEM_IUPAC_OPENEYE_NAME>
(1R,2S,6R,7S)-4-[[(1R,2R)-2-[[4-(1,2-benzothiazol-3-yl)piperazin-1-yl]methyl]cyclohexyl]methyl]-4-azatricyclo[5.2.1.02,6]decane-3,5-dione

> <PUBCHEM_IUPAC_CAS_NAME>
(1R,2S,6R,7S)-4-[[(1R,2R)-2-[[4-(1,2-benzothiazol-3-yl)-1-piperazinyl]methyl]cyclohexyl]methyl]-4-azatricyclo[5.2.1.02,6]decane-3,5-dione

> <PUBCHEM_IUPAC_NAME_MARKUP>
(1<I>R</I>,2<I>S</I>,6<I>R</I>,7<I>S</I>)-4-[[(1<I>R</I>,2<I>R</I>)-2-[[4-(1,2-benzothiazol-3-yl)piperazin-1-yl]methyl]cyclohexyl]methyl]-4-azatricyclo[5.2.1.0<SUP>2,6</SUP>]decane-3,5-dione

> <PUBCHEM_IUPAC_NAME>
(1R,2S,6R,7S)-4-[[(1R,2R)-2-[[4-(1,2-benzothiazol-3-yl)piperazin-1-yl]methyl]cyclohexyl]methyl]-4-azatricyclo[5.2.1.02,6]decane-3,5-dione

> <PUBCHEM_IUPAC_SYSTEMATIC_NAME>
(1R,2S,6R,7S)-4-[[(1R,2R)-2-[[4-(1,2-benzothiazol-3-yl)piperazin-1-yl]methyl]cyclohexyl]methyl]-4-azatricyclo[5.2.1.02,6]decane-3,5-dione

> <PUBCHEM_IUPAC_TRADITIONAL_NAME>
(1R,2S,6R,7S)-4-[[(1R,2R)-2-[[4-(1,2-benzothiazol-3-yl)piperazino]methyl]cyclohexyl]methyl]-4-azatricyclo[5.2.1.02,6]decane-3,5-quinone

> <PUBCHEM_IUPAC_INCHI>
InChI=1S/C28H36N4O2S/c33-27-24-18-9-10-19(15-18)25(24)28(34)32(27)17-21-6-2-1-5-20(21)16-30-11-13-31(14-12-30)26-22-7-3-4-8-23(22)35-29-26/h3-4,7-8,18-21,24-25H,1-2,5-6,9-17H2/t18-,19+,20-,21-,24+,25-/m0/s1

> <PUBCHEM_IUPAC_INCHIKEY>
PQXKDMSYBGKCJA-CVTJIBDQSA-N

> <PUBCHEM_XLOGP3_AA>
5.4

> <PUBCHEM_EXACT_MASS>
492.25589758

> <PUBCHEM_MOLECULAR_FORMULA>
C28H36N4O2S

> <PUBCHEM_MOLECULAR_WEIGHT>
492.7

> <PUBCHEM_SMILES>
C1CC[C@H]([C@@H](C1)CN2CCN(CC2)C3=NSC4=CC=CC=C43)CN5C(=O)[C@H]6[C@@H]7CC[C@@H](C7)[C@H]6C5=O

> <PUBCHEM_CONNECTIVITY_SMILES>
C1CCC(C(C1)CN2CCN(CC2)C3=NSC4=CC=CC=C43)CN5C(=O)C6C7CCC(C7)C6C5=O

> <PUBCHEM_CACTVS_TPSA>
85

> <PUBCHEM_MONOISOTOPIC_WEIGHT>
492.25589758

> <PUBCHEM_TOTAL_CHARGE>
0

> <PUBCHEM_HEAVY_ATOM_COUNT>
35

> <PUBCHEM_ATOM_DEF_STEREO_COUNT>
6

> <PUBCHEM_ATOM_UDEF_STEREO_COUNT>
0

> <PUBCHEM_BOND_DEF_STEREO_COUNT>
0

> <PUBCHEM_BOND_UDEF_STEREO_COUNT>
0

> <PUBCHEM_ISOTOPIC_ATOM_COUNT>
0

> <PUBCHEM_COMPONENT_COUNT>
1

> <PUBCHEM_CACTVS_TAUTO_COUNT>
-1

> <PUBCHEM_COORDINATE_TYPE>
1
5
255

> <PUBCHEM_BONDANNOTATIONS>
1  31  8
1  7  8
10  38  6
11  39  6
18  17  6
19  23  5
29  30  8
30  31  8
30  32  8
31  33  8
32  34  8
33  35  8
34  35  8
7  29  8
8  36  5
9  37  6

$$$$
11154555
  -OEChem-08112611012D

 60 62  0     0  0  0  0  0  0999 V2000
    2.0000   -4.2500    0.0000 Cl  0  0  0  0  0  0  0  0  0  0  0  0
    2.0000   -6.2500    0.0000 Cl  0  0  0  0  0  0  0  0  0  0  0  0
    6.3301    4.2500    0.0000 O   0  0  0  0  0  0  0  0  0  0  0  0
    3.7321   -1.2500    0.0000 N   0  0  0  0  0  0  0  0  0  0  0  0
    4.5981    4.2500    0.0000 N   0  0  0  0  0  0  0  0  0  0  0  0
    3.7321   -3.2500    0.0000 N   0  0  0  0  0  0  0  0  0  0  0  0
    5.4641    5.7500    0.0000 N   0  0  0  0  0  0  0  0  0  0  0  0
    4.5981    1.2500    0.0000 C   0  0  0  0  0  0  0  0  0  0  0  0
    3.7321    1.7500    0.0000 C   0  0  0  0  0  0  0  0  0  0  0  0
    5.4641    1.7500    0.0000 C   0  0  0  0  0  0  0  0  0  0  0  0
    4.5981    3.2500    0.0000 C   0  0  0  0  0  0  0  0  0  0  0  0
    3.7321    2.7500    0.0000 C   0  0  0  0  0  0  0  0  0  0  0  0
    5.4641    2.7500    0.0000 C   0  0  0  0  0  0  0  0  0  0  0  0
    4.5981    0.2500    0.0000 C   0  0  0  0  0  0  0  0  0  0  0  0
    3.7321   -0.2500    0.0000 C   0  0  0  0  0  0  0  0  0  0  0  0
    4.5981   -1.7500    0.0000 C   0  0  0  0  0  0  0  0  0  0  0  0
    2.8660   -1.7500    0.0000 C   0  0  0  0  0  0  0  0  0  0  0  0
    4.5981   -2.7500    0.0000 C   0  0  0  0  0  0  0  0  0  0  0  0
    2.8660   -2.7500    0.0000 C   0  0  0  0  0  0  0  0  0  0  0  0
    5.4641    4.7500    0.0000 C   0  0  0  0  0  0  0  0  0  0  0  0
    3.7321   -4.2500    0.0000 C   0  0  0  0  0  0  0  0  0  0  0  0
    2.8660   -4.7500    0.0000 C   0  0  0  0  0  0  0  0  0  0  0  0
    4.5981   -4.7500    0.0000 C   0  0  0  0  0  0  0  0  0  0  0  0
    6.3301    6.2500    0.0000 C   0  0  0  0  0  0  0  0  0  0  0  0
    4.5981    6.2500    0.0000 C   0  0  0  0  0  0  0  0  0  0  0  0
    2.8660   -5.7500    0.0000 C   0  0  0  0  0  0  0  0  0  0  0  0
    4.5981   -5.7500    0.0000 C   0  0  0  0  0  0  0  0  0  0  0  0
    3.7321   -6.2500    0.0000 C   0  0  0  0  0  0  0  0  0  0  0  0
    5.1350    0.9400    0.0000 H   0  0  0  0  0  0  0  0  0  0  0  0
    3.1215    1.8577    0.0000 H   0  0  0  0  0  0  0  0  0  0  0  0
    3.5200    1.1674    0.0000 H   0  0  0  0  0  0  0  0  0  0  0  0
    5.6762    1.1674    0.0000 H   0  0  0  0  0  0  0  0  0  0  0  0
    6.0747    1.8577    0.0000 H   0  0  0  0  0  0  0  0  0  0  0  0
    5.1350    3.5600    0.0000 H   0  0  0  0  0  0  0  0  0  0  0  0
    3.5200    3.3326    0.0000 H   0  0  0  0  0  0  0  0  0  0  0  0
    3.1215    2.6423    0.0000 H   0  0  0  0  0  0  0  0  0  0  0  0
    6.0747    2.6423    0.0000 H   0  0  0  0  0  0  0  0  0  0  0  0
    5.6762    3.3326    0.0000 H   0  0  0  0  0  0  0  0  0  0  0  0
    4.8101   -0.3326    0.0000 H   0  0  0  0  0  0  0  0  0  0  0  0
    5.2087    0.3577    0.0000 H   0  0  0  0  0  0  0  0  0  0  0  0
    3.5200    0.3326    0.0000 H   0  0  0  0  0  0  0  0  0  0  0  0
    3.1215   -0.3577    0.0000 H   0  0  0  0  0  0  0  0  0  0  0  0
    5.2087   -1.8577    0.0000 H   0  0  0  0  0  0  0  0  0  0  0  0
    4.8101   -1.1674    0.0000 H   0  0  0  0  0  0  0  0  0  0  0  0
    2.6540   -1.1674    0.0000 H   0  0  0  0  0  0  0  0  0  0  0  0
    2.2554   -1.8577    0.0000 H   0  0  0  0  0  0  0  0  0  0  0  0
    4.0611    4.5600    0.0000 H   0  0  0  0  0  0  0  0  0  0  0  0
    4.8101   -3.3326    0.0000 H   0  0  0  0  0  0  0  0  0  0  0  0
    5.2087   -2.6423    0.0000 H   0  0  0  0  0  0  0  0  0  0  0  0
    2.2554   -2.6423    0.0000 H   0  0  0  0  0  0  0  0  0  0  0  0
    2.6540   -3.3326    0.0000 H   0  0  0  0  0  0  0  0  0  0  0  0
    5.1350   -4.4400    0.0000 H   0  0  0  0  0  0  0  0  0  0  0  0
    6.6401    5.7131    0.0000 H   0  0  0  0  0  0  0  0  0  0  0  0
    6.8671    6.5600    0.0000 H   0  0  0  0  0  0  0  0  0  0  0  0
    6.0201    6.7869    0.0000 H   0  0  0  0  0  0  0  0  0  0  0  0
    4.9081    6.7869    0.0000 H   0  0  0  0  0  0  0  0  0  0  0  0
    4.0611    6.5600    0.0000 H   0  0  0  0  0  0  0  0  0  0  0  0
    4.2881    5.7131    0.0000 H   0  0  0  0  0  0  0  0  0  0  0  0
    5.1350   -6.0600    0.0000 H   0  0  0  0  0  0  0  0  0  0  0  0
    3.7321   -6.8700    0.0000 H   0  0  0  0  0  0  0  0  0  0  0  0
  1 22  1  0  0  0  0
  2 26  1  0  0  0  0
  3 20  2  0  0  0  0
  4 15  1  0  0  0  0
  4 16  1  0  0  0  0
  4 17  1  0  0  0  0
  5 11  1  0  0  0  0
  5 20  1  0  0  0  0
  5 47  1  0  0  0  0
  6 18  1  0  0  0  0
  6 19  1  0  0  0  0
  6 21  1  0  0  0  0
  7 20  1  0  0  0  0
  7 24  1  0  0  0  0
  7 25  1  0  0  0  0
  8  9  1  0  0  0  0
  8 10  1  0  0  0  0
  8 14  1  0  0  0  0
  8 29  1  0  0  0  0
  9 12  1  0  0  0  0
  9 30  1  0  0  0  0
  9 31  1  0  0  0  0
 10 13  1  0  0  0  0
 10 32  1  0  0  0  0
 10 33  1  0  0  0  0
 11 12  1  0  0  0  0
 11 13  1  0  0  0  0
 11 34  1  0  0  0  0
 12 35  1  0  0  0  0
 12 36  1  0  0  0  0
 13 37  1  0  0  0  0
 13 38  1  0  0  0  0
 14 15  1  0  0  0  0
 14 39  1  0  0  0  0
 14 40  1  0  0  0  0
 15 41  1  0  0  0  0
 15 42  1  0  0  0  0
 16 18  1  0  0  0  0
 16 43  1  0  0  0  0
 16 44  1  0  0  0  0
 17 19  1  0  0  0  0
 17 45  1  0  0  0  0
 17 46  1  0  0  0  0
 18 48  1  0  0  0  0
 18 49  1  0  0  0  0
 19 50  1  0  0  0  0
 19 51  1  0  0  0  0
 21 22  2  0  0  0  0
 21 23  1  0  0  0  0
 22 26  1  0  0  0  0
 23 27  2  0  0  0  0
 23 52  1  0  0  0  0
 24 53  1  0  0  0  0
 24 54  1  0  0  0  0
 24 55  1  0  0  0  0
 25 56  1  0  0  0  0
 25 57  1  0  0  0  0
 25 58  1  0  0  0  0
 26 28  2  0  0  0  0
 27 28  1  0  0  0  0
 27 59  1  0  0  0  0
 28 60  1  0  0  0  0
M  END
> <PUBCHEM_COMPOUND_CID>
11154555

> <PUBCHEM_COMPOUND_CANONICALIZED>
1

> <PUBCHEM_CACTVS_COMPLEXITY>
491

> <PUBCHEM_CACTVS_HBOND_ACCEPTOR>
3

> <PUBCHEM_CACTVS_HBOND_DONOR>
1

> <PUBCHEM_CACTVS_ROTATABLE_BOND>
5

> <PUBCHEM_CACTVS_SUBSKEYS>
AAADcfB7oAAGAAAAAAAAAAAAAAAAAAAAAAA8YIAAAAAAAAABAAAAHgIQAAAADSrBECQzwIPAAACIACRCUACCAAAhBwAIisAIZoiIYCLBk5HUIAholgLIyAcQgIAOAAAAAAIAABQQAAAABAAAKAAAAAAAAA==

> <PUBCHEM_IUPAC_OPENEYE_NAME>
3-[4-[2-[4-(2,3-dichlorophenyl)piperazin-1-yl]ethyl]cyclohexyl]-1,1-dimethyl-urea

> <PUBCHEM_IUPAC_CAS_NAME>
3-[4-[2-[4-(2,3-dichlorophenyl)-1-piperazinyl]ethyl]cyclohexyl]-1,1-dimethylurea

> <PUBCHEM_IUPAC_NAME_MARKUP>
3-[4-[2-[4-(2,3-dichlorophenyl)piperazin-1-yl]ethyl]cyclohexyl]-1,1-dimethylurea

> <PUBCHEM_IUPAC_NAME>
3-[4-[2-[4-(2,3-dichlorophenyl)piperazin-1-yl]ethyl]cyclohexyl]-1,1-dimethylurea

> <PUBCHEM_IUPAC_SYSTEMATIC_NAME>
3-[4-[2-[4-[2,3-bis(chloranyl)phenyl]piperazin-1-yl]ethyl]cyclohexyl]-1,1-dimethyl-urea

> <PUBCHEM_IUPAC_TRADITIONAL_NAME>
3-[4-[2-[4-(2,3-dichlorophenyl)piperazino]ethyl]cyclohexyl]-1,1-dimethyl-urea

> <PUBCHEM_IUPAC_INCHI>
InChI=1S/C21H32Cl2N4O/c1-25(2)21(28)24-17-8-6-16(7-9-17)10-11-26-12-14-27(15-13-26)19-5-3-4-18(22)20(19)23/h3-5,16-17H,6-15H2,1-2H3,(H,24,28)

> <PUBCHEM_IUPAC_INCHIKEY>
KPWSJANDNDDRMB-UHFFFAOYSA-N

> <PUBCHEM_XLOGP3_AA>
4.3

> <PUBCHEM_EXACT_MASS>
426.1953170

> <PUBCHEM_MOLECULAR_FORMULA>
C21H32Cl2N4O

> <PUBCHEM_MOLECULAR_WEIGHT>
427.4

> <PUBCHEM_SMILES>
CN(C)C(=O)NC1CCC(CC1)CCN2CCN(CC2)C3=C(C(=CC=C3)Cl)Cl

> <PUBCHEM_CONNECTIVITY_SMILES>
CN(C)C(=O)NC1CCC(CC1)CCN2CCN(CC2)C3=C(C(=CC=C3)Cl)Cl

> <PUBCHEM_CACTVS_TPSA>
38.8

> <PUBCHEM_MONOISOTOPIC_WEIGHT>
426.1953170

> <PUBCHEM_TOTAL_CHARGE>
0

> <PUBCHEM_HEAVY_ATOM_COUNT>
28

> <PUBCHEM_ATOM_DEF_STEREO_COUNT>
0

> <PUBCHEM_ATOM_UDEF_STEREO_COUNT>
0

> <PUBCHEM_BOND_DEF_STEREO_COUNT>
0

> <PUBCHEM_BOND_UDEF_STEREO_COUNT>
0

> <PUBCHEM_ISOTOPIC_ATOM_COUNT>
0

> <PUBCHEM_COMPONENT_COUNT>
1

> <PUBCHEM_CACTVS_TAUTO_COUNT>
-1

> <PUBCHEM_COORDINATE_TYPE>
1
5
255

> <PUBCHEM_BONDANNOTATIONS>
21  22  8
21  23  8
22  26  8
23  27  8
26  28  8
27  28  8

$$$$
11978813
  -OEChem-08112611012D

 58 62  0     0  0  0  0  0  0999 V2000
    2.0000   -0.1404    0.0000 S   0  0  0  0  0  0  0  0  0  0  0  0
   11.4023   -1.4370    0.0000 O   0  0  0  0  0  0  0  0  0  0  0  0
   16.6645   -1.4129    0.0000 O   0  0  0  0  0  0  0  0  0  0  0  0
    7.0703   -0.9537    0.0000 N   0  0  0  0  0  0  0  0  0  0  0  0
    5.3344    0.0396    0.0000 N   0  0  0  0  0  0  0  0  0  0  0  0
   14.9325   -1.4129    0.0000 N   0  0  0  0  0  0  0  0  0  0  0  0
    7.0665    0.0463    0.0000 C   0  0  0  0  0  0  0  0  0  0  0  0
    6.2062   -1.4571    0.0000 C   0  0  0  0  0  0  0  0  0  0  0  0
    6.1985    0.5429    0.0000 C   0  0  0  0  0  0  0  0  0  0  0  0
    5.3383   -0.9604    0.0000 C   0  0  0  0  0  0  0  0  0  0  0  0
    7.9383   -1.4504    0.0000 C   0  0  0  0  0  0  0  0  0  0  0  0
    8.8024   -0.9471    0.0000 C   0  0  0  0  0  0  0  0  0  0  0  0
    4.4665    0.5362    0.0000 C   0  0  0  0  0  0  0  0  0  0  0  0
    9.6703   -1.4437    0.0000 C   0  0  0  0  0  0  0  0  0  0  0  0
    3.6024    0.0329    0.0000 C   0  0  0  0  0  0  0  0  0  0  0  0
    4.4626    1.5362    0.0000 C   0  0  0  0  0  0  0  0  0  0  0  0
   10.5344   -0.9404    0.0000 C   0  0  0  0  0  0  0  0  0  0  0  0
    2.7344    0.5296    0.0000 C   0  0  0  0  0  0  0  0  0  0  0  0
    3.3969   -0.9397    0.0000 C   0  0  0  0  0  0  0  0  0  0  0  0
    3.5947    2.0329    0.0000 C   0  0  0  0  0  0  0  0  0  0  0  0
    2.7306    1.5296    0.0000 C   0  0  0  0  0  0  0  0  0  0  0  0
    2.4086   -1.0466    0.0000 C   0  0  0  0  0  0  0  0  0  0  0  0
   12.2664   -0.9337    0.0000 C   0  0  0  0  0  0  0  0  0  0  0  0
   13.1725   -1.4476    0.0000 C   0  0  0  0  0  0  0  0  0  0  0  0
   14.0664   -0.9129    0.0000 C   0  0  0  0  0  0  0  0  0  0  0  0
   12.2664    0.1079    0.0000 C   0  0  0  0  0  0  0  0  0  0  0  0
   14.0664    0.0871    0.0000 C   0  0  0  0  0  0  0  0  0  0  0  0
   13.1725    0.6218    0.0000 C   0  0  0  0  0  0  0  0  0  0  0  0
   14.9325    0.5871    0.0000 C   0  0  0  0  0  0  0  0  0  0  0  0
   15.7985   -0.9129    0.0000 C   0  0  0  0  0  0  0  0  0  0  0  0
   15.7985    0.0871    0.0000 C   0  0  0  0  0  0  0  0  0  0  0  0
    7.6775   -0.0590    0.0000 H   0  0  0  0  0  0  0  0  0  0  0  0
    7.2763    0.6297    0.0000 H   0  0  0  0  0  0  0  0  0  0  0  0
    5.8095   -1.9336    0.0000 H   0  0  0  0  0  0  0  0  0  0  0  0
    6.6066   -1.9305    0.0000 H   0  0  0  0  0  0  0  0  0  0  0  0
    6.5952    1.0194    0.0000 H   0  0  0  0  0  0  0  0  0  0  0  0
    5.7982    1.0163    0.0000 H   0  0  0  0  0  0  0  0  0  0  0  0
    4.7273   -0.8551    0.0000 H   0  0  0  0  0  0  0  0  0  0  0  0
    5.1285   -1.5438    0.0000 H   0  0  0  0  0  0  0  0  0  0  0  0
    7.5416   -1.9269    0.0000 H   0  0  0  0  0  0  0  0  0  0  0  0
    8.3386   -1.9238    0.0000 H   0  0  0  0  0  0  0  0  0  0  0  0
    9.1991   -0.4706    0.0000 H   0  0  0  0  0  0  0  0  0  0  0  0
    8.4020   -0.4737    0.0000 H   0  0  0  0  0  0  0  0  0  0  0  0
    9.2736   -1.9202    0.0000 H   0  0  0  0  0  0  0  0  0  0  0  0
   10.0707   -1.9171    0.0000 H   0  0  0  0  0  0  0  0  0  0  0  0
    4.9984    1.8483    0.0000 H   0  0  0  0  0  0  0  0  0  0  0  0
   10.9311   -0.4639    0.0000 H   0  0  0  0  0  0  0  0  0  0  0  0
   10.1340   -0.4670    0.0000 H   0  0  0  0  0  0  0  0  0  0  0  0
    3.8128   -1.3996    0.0000 H   0  0  0  0  0  0  0  0  0  0  0  0
    3.5923    2.6529    0.0000 H   0  0  0  0  0  0  0  0  0  0  0  0
    2.1925    1.8375    0.0000 H   0  0  0  0  0  0  0  0  0  0  0  0
    2.1007   -1.5847    0.0000 H   0  0  0  0  0  0  0  0  0  0  0  0
   13.1797   -2.0675    0.0000 H   0  0  0  0  0  0  0  0  0  0  0  0
   11.7307    0.4200    0.0000 H   0  0  0  0  0  0  0  0  0  0  0  0
   13.1797    1.2417    0.0000 H   0  0  0  0  0  0  0  0  0  0  0  0
   14.9325   -2.0329    0.0000 H   0  0  0  0  0  0  0  0  0  0  0  0
   14.9325    1.2071    0.0000 H   0  0  0  0  0  0  0  0  0  0  0  0
   16.3354    0.3971    0.0000 H   0  0  0  0  0  0  0  0  0  0  0  0
  1 18  1  0  0  0  0
  1 22  1  0  0  0  0
  2 17  1  0  0  0  0
  2 23  1  0  0  0  0
  3 30  2  0  0  0  0
  4  7  1  0  0  0  0
  4  8  1  0  0  0  0
  4 11  1  0  0  0  0
  5  9  1  0  0  0  0
  5 10  1  0  0  0  0
  5 13  1  0  0  0  0
  6 25  1  0  0  0  0
  6 30  1  0  0  0  0
  6 56  1  0  0  0  0
  7  9  1  0  0  0  0
  7 32  1  0  0  0  0
  7 33  1  0  0  0  0
  8 10  1  0  0  0  0
  8 34  1  0  0  0  0
  8 35  1  0  0  0  0
  9 36  1  0  0  0  0
  9 37  1  0  0  0  0
 10 38  1  0  0  0  0
 10 39  1  0  0  0  0
 11 12  1  0  0  0  0
 11 40  1  0  0  0  0
 11 41  1  0  0  0  0
 12 14  1  0  0  0  0
 12 42  1  0  0  0  0
 12 43  1  0  0  0  0
 13 15  2  0  0  0  0
 13 16  1  0  0  0  0
 14 17  1  0  0  0  0
 14 44  1  0  0  0  0
 14 45  1  0  0  0  0
 15 18  1  0  0  0  0
 15 19  1  0  0  0  0
 16 20  2  0  0  0  0
 16 46  1  0  0  0  0
 17 47  1  0  0  0  0
 17 48  1  0  0  0  0
 18 21  2  0  0  0  0
 19 22  2  0  0  0  0
 19 49  1  0  0  0  0
 20 21  1  0  0  0  0
 20 50  1  0  0  0  0
 21 51  1  0  0  0  0
 22 52  1  0  0  0  0
 23 24  2  0  0  0  0
 23 26  1  0  0  0  0
 24 25  1  0  0  0  0
 24 53  1  0  0  0  0
 25 27  2  0  0  0  0
 26 28  2  0  0  0  0
 26 54  1  0  0  0  0
 27 28  1  0  0  0  0
 27 29  1  0  0  0  0
 28 55  1  0  0  0  0
 29 31  2  0  0  0  0
 29 57  1  0  0  0  0
 30 31  1  0  0  0  0
 31 58  1  0  0  0  0
M  END
> <PUBCHEM_COMPOUND_CID>
11978813

> <PUBCHEM_COMPOUND_CANONICALIZED>
1

> <PUBCHEM_CACTVS_COMPLEXITY>
636

> <PUBCHEM_CACTVS_HBOND_ACCEPTOR>
5

> <PUBCHEM_CACTVS_HBOND_DONOR>
1

> <PUBCHEM_CACTVS_ROTATABLE_BOND>
7

> <PUBCHEM_CACTVS_SUBSKEYS>
AAADceB7MABAAAAAAAAAAAAAAAAAASAAAAA8YIEAAAAAAEiB9AAAHgQQAAAADAzl2Aawx8PABAiMAiVSUACDCIAhKhBIiBgObMgMZiLksZuWOCzm1Bno6Yew0IMOIAAAAiAGAABAAAAEQAwAAAAAAAAAAA==

> <PUBCHEM_IUPAC_OPENEYE_NAME>
7-[4-[4-(benzothiophen-4-yl)piperazin-1-yl]butoxy]-1H-quinolin-2-one

> <PUBCHEM_IUPAC_CAS_NAME>
7-[4-[4-(1-benzothiophen-4-yl)-1-piperazinyl]butoxy]-1H-quinolin-2-one

> <PUBCHEM_IUPAC_NAME_MARKUP>
7-[4-[4-(1-benzothiophen-4-yl)piperazin-1-yl]butoxy]-1<I>H</I>-quinolin-2-one

> <PUBCHEM_IUPAC_NAME>
7-[4-[4-(1-benzothiophen-4-yl)piperazin-1-yl]butoxy]-1H-quinolin-2-one

> <PUBCHEM_IUPAC_SYSTEMATIC_NAME>
7-[4-[4-(1-benzothiophen-4-yl)piperazin-1-yl]butoxy]-1H-quinolin-2-one

> <PUBCHEM_IUPAC_TRADITIONAL_NAME>
7-[4-[4-(benzothiophen-4-yl)piperazino]butoxy]carbostyril

> <PUBCHEM_IUPAC_INCHI>
InChI=1S/C25H27N3O2S/c29-25-9-7-19-6-8-20(18-22(19)26-25)30-16-2-1-11-27-12-14-28(15-13-27)23-4-3-5-24-21(23)10-17-31-24/h3-10,17-18H,1-2,11-16H2,(H,26,29)

> <PUBCHEM_IUPAC_INCHIKEY>
ZKIAIYBUSXZPLP-UHFFFAOYSA-N

> <PUBCHEM_XLOGP3_AA>
4.7

> <PUBCHEM_EXACT_MASS>
433.18239829

> <PUBCHEM_MOLECULAR_FORMULA>
C25H27N3O2S

> <PUBCHEM_MOLECULAR_WEIGHT>
433.6

> <PUBCHEM_SMILES>
C1CN(CCN1CCCCOC2=CC3=C(C=C2)C=CC(=O)N3)C4=C5C=CSC5=CC=C4

> <PUBCHEM_CONNECTIVITY_SMILES>
C1CN(CCN1CCCCOC2=CC3=C(C=C2)C=CC(=O)N3)C4=C5C=CSC5=CC=C4

> <PUBCHEM_CACTVS_TPSA>
73.1

> <PUBCHEM_MONOISOTOPIC_WEIGHT>
433.18239829

> <PUBCHEM_TOTAL_CHARGE>
0

> <PUBCHEM_HEAVY_ATOM_COUNT>
31

> <PUBCHEM_ATOM_DEF_STEREO_COUNT>
0

> <PUBCHEM_ATOM_UDEF_STEREO_COUNT>
0

> <PUBCHEM_BOND_DEF_STEREO_COUNT>
0

> <PUBCHEM_BOND_UDEF_STEREO_COUNT>
0

> <PUBCHEM_ISOTOPIC_ATOM_COUNT>
0

> <PUBCHEM_COMPONENT_COUNT>
1

> <PUBCHEM_CACTVS_TAUTO_COUNT>
-1

> <PUBCHEM_COORDINATE_TYPE>
1
5
255

> <PUBCHEM_BONDANNOTATIONS>
1  18  8
1  22  8
13  15  8
13  16  8
15  18  8
15  19  8
16  20  8
18  21  8
19  22  8
20  21  8
23  24  8
23  26  8
24  25  8
25  27  8
26  28  8
27  28  8
27  29  8
29  31  8
30  31  8
6  25  8
6  30  8

$$$$
10071196
  -OEChem-08112611012D

 65 67  0     0  0  0  0  0  0999 V2000
    2.8660    4.2500    0.0000 F   0  0  0  0  0  0  0  0  0  0  0  0
    4.5981    1.2500    0.0000 O   0  0  0  0  0  0  0  0  0  0  0  0
    9.7942   -1.7500    0.0000 O   0  0  0  0  0  0  0  0  0  0  0  0
    3.7321   -3.2500    0.0000 N   0  0  0  0  0  0  0  0  0  0  0  0
    3.7321   -0.2500    0.0000 N   0  0  0  0  0  0  0  0  0  0  0  0
    5.4641   -0.2500    0.0000 N   0  0  0  0  0  0  0  0  0  0  0  0
    3.7321   -1.2500    0.0000 C   0  0  0  0  0  0  0  0  0  0  0  0
    4.5981   -1.7500    0.0000 C   0  0  0  0  0  0  0  0  0  0  0  0
    2.8660   -1.7500    0.0000 C   0  0  0  0  0  0  0  0  0  0  0  0
    4.5981   -2.7500    0.0000 C   0  0  0  0  0  0  0  0  0  0  0  0
    2.8660   -2.7500    0.0000 C   0  0  0  0  0  0  0  0  0  0  0  0
    2.8660    0.2500    0.0000 C   0  0  0  0  0  0  0  0  0  0  0  0
    3.7321   -4.2500    0.0000 C   0  0  0  0  0  0  0  0  0  0  0  0
    4.5981    0.2500    0.0000 C   0  0  0  0  0  0  0  0  0  0  0  0
    2.8660    1.2500    0.0000 C   0  0  0  0  0  0  0  0  0  0  0  0
    6.3301    0.2500    0.0000 C   0  0  0  0  0  0  0  0  0  0  0  0
    2.0000    1.7500    0.0000 C   0  0  0  0  0  0  0  0  0  0  0  0
    3.7321    1.7500    0.0000 C   0  0  0  0  0  0  0  0  0  0  0  0
    7.1962   -0.2500    0.0000 C   0  0  0  0  0  0  0  0  0  0  0  0
    2.0000    2.7500    0.0000 C   0  0  0  0  0  0  0  0  0  0  0  0
    3.7321    2.7500    0.0000 C   0  0  0  0  0  0  0  0  0  0  0  0
    2.8660    3.2500    0.0000 C   0  0  0  0  0  0  0  0  0  0  0  0
    8.0622    0.2500    0.0000 C   0  0  0  0  0  0  0  0  0  0  0  0
    7.1962   -1.2500    0.0000 C   0  0  0  0  0  0  0  0  0  0  0  0
   11.5263   -1.7500    0.0000 C   0  0  0  0  0  0  0  0  0  0  0  0
    8.9282   -1.2500    0.0000 C   0  0  0  0  0  0  0  0  0  0  0  0
    8.9282   -0.2500    0.0000 C   0  0  0  0  0  0  0  0  0  0  0  0
    8.0622   -1.7500    0.0000 C   0  0  0  0  0  0  0  0  0  0  0  0
   10.6603   -1.2500    0.0000 C   0  0  0  0  0  0  0  0  0  0  0  0
   12.3923   -1.2500    0.0000 C   0  0  0  0  0  0  0  0  0  0  0  0
   11.5263   -2.7500    0.0000 C   0  0  0  0  0  0  0  0  0  0  0  0
    4.2690   -0.9400    0.0000 H   0  0  0  0  0  0  0  0  0  0  0  0
    5.2087   -1.8577    0.0000 H   0  0  0  0  0  0  0  0  0  0  0  0
    4.8101   -1.1674    0.0000 H   0  0  0  0  0  0  0  0  0  0  0  0
    2.6540   -1.1674    0.0000 H   0  0  0  0  0  0  0  0  0  0  0  0
    2.2554   -1.8577    0.0000 H   0  0  0  0  0  0  0  0  0  0  0  0
    4.8101   -3.3326    0.0000 H   0  0  0  0  0  0  0  0  0  0  0  0
    5.2087   -2.6423    0.0000 H   0  0  0  0  0  0  0  0  0  0  0  0
    2.2554   -2.6423    0.0000 H   0  0  0  0  0  0  0  0  0  0  0  0
    2.6540   -3.3326    0.0000 H   0  0  0  0  0  0  0  0  0  0  0  0
    2.2554    0.3577    0.0000 H   0  0  0  0  0  0  0  0  0  0  0  0
    2.6540   -0.3326    0.0000 H   0  0  0  0  0  0  0  0  0  0  0  0
    3.1121   -4.2500    0.0000 H   0  0  0  0  0  0  0  0  0  0  0  0
    3.7321   -4.8700    0.0000 H   0  0  0  0  0  0  0  0  0  0  0  0
    4.3521   -4.2500    0.0000 H   0  0  0  0  0  0  0  0  0  0  0  0
    5.4641   -0.8700    0.0000 H   0  0  0  0  0  0  0  0  0  0  0  0
    6.7287    0.7249    0.0000 H   0  0  0  0  0  0  0  0  0  0  0  0
    5.9316    0.7249    0.0000 H   0  0  0  0  0  0  0  0  0  0  0  0
    1.4631    1.4400    0.0000 H   0  0  0  0  0  0  0  0  0  0  0  0
    4.2690    1.4400    0.0000 H   0  0  0  0  0  0  0  0  0  0  0  0
    1.4631    3.0600    0.0000 H   0  0  0  0  0  0  0  0  0  0  0  0
    4.2690    3.0600    0.0000 H   0  0  0  0  0  0  0  0  0  0  0  0
    8.0622    0.8700    0.0000 H   0  0  0  0  0  0  0  0  0  0  0  0
    6.6592   -1.5600    0.0000 H   0  0  0  0  0  0  0  0  0  0  0  0
   12.0632   -2.0600    0.0000 H   0  0  0  0  0  0  0  0  0  0  0  0
    9.4651    0.0600    0.0000 H   0  0  0  0  0  0  0  0  0  0  0  0
    8.0622   -2.3700    0.0000 H   0  0  0  0  0  0  0  0  0  0  0  0
   11.0588   -0.7751    0.0000 H   0  0  0  0  0  0  0  0  0  0  0  0
   10.2617   -0.7751    0.0000 H   0  0  0  0  0  0  0  0  0  0  0  0
   12.7023   -1.7869    0.0000 H   0  0  0  0  0  0  0  0  0  0  0  0
   12.9292   -0.9400    0.0000 H   0  0  0  0  0  0  0  0  0  0  0  0
   12.0823   -0.7131    0.0000 H   0  0  0  0  0  0  0  0  0  0  0  0
   10.9063   -2.7500    0.0000 H   0  0  0  0  0  0  0  0  0  0  0  0
   11.5263   -3.3700    0.0000 H   0  0  0  0  0  0  0  0  0  0  0  0
   12.1463   -2.7500    0.0000 H   0  0  0  0  0  0  0  0  0  0  0  0
  1 22  1  0  0  0  0
  2 14  2  0  0  0  0
  3 26  1  0  0  0  0
  3 29  1  0  0  0  0
  4 10  1  0  0  0  0
  4 11  1  0  0  0  0
  4 13  1  0  0  0  0
  5  7  1  0  0  0  0
  5 12  1  0  0  0  0
  5 14  1  0  0  0  0
  6 14  1  0  0  0  0
  6 16  1  0  0  0  0
  6 46  1  0  0  0  0
  7  8  1  0  0  0  0
  7  9  1  0  0  0  0
  7 32  1  0  0  0  0
  8 10  1  0  0  0  0
  8 33  1  0  0  0  0
  8 34  1  0  0  0  0
  9 11  1  0  0  0  0
  9 35  1  0  0  0  0
  9 36  1  0  0  0  0
 10 37  1  0  0  0  0
 10 38  1  0  0  0  0
 11 39  1  0  0  0  0
 11 40  1  0  0  0  0
 12 15  1  0  0  0  0
 12 41  1  0  0  0  0
 12 42  1  0  0  0  0
 13 43  1  0  0  0  0
 13 44  1  0  0  0  0
 13 45  1  0  0  0  0
 15 17  2  0  0  0  0
 15 18  1  0  0  0  0
 16 19  1  0  0  0  0
 16 47  1  0  0  0  0
 16 48  1  0  0  0  0
 17 20  1  0  0  0  0
 17 49  1  0  0  0  0
 18 21  2  0  0  0  0
 18 50  1  0  0  0  0
 19 23  2  0  0  0  0
 19 24  1  0  0  0  0
 20 22  2  0  0  0  0
 20 51  1  0  0  0  0
 21 22  1  0  0  0  0
 21 52  1  0  0  0  0
 23 27  1  0  0  0  0
 23 53  1  0  0  0  0
 24 28  2  0  0  0  0
 24 54  1  0  0  0  0
 25 29  1  0  0  0  0
 25 30  1  0  0  0  0
 25 31  1  0  0  0  0
 25 55  1  0  0  0  0
 26 27  2  0  0  0  0
 26 28  1  0  0  0  0
 27 56  1  0  0  0  0
 28 57  1  0  0  0  0
 29 58  1  0  0  0  0
 29 59  1  0  0  0  0
 30 60  1  0  0  0  0
 30 61  1  0  0  0  0
 30 62  1  0  0  0  0
 31 63  1  0  0  0  0
 31 64  1  0  0  0  0
 31 65  1  0  0  0  0
M  END
> <PUBCHEM_COMPOUND_CID>
10071196

> <PUBCHEM_COMPOUND_CANONICALIZED>
1

> <PUBCHEM_CACTVS_COMPLEXITY>
523

> <PUBCHEM_CACTVS_HBOND_ACCEPTOR>
4

> <PUBCHEM_CACTVS_HBOND_DONOR>
1

> <PUBCHEM_CACTVS_ROTATABLE_BOND>
8

> <PUBCHEM_CACTVS_SUBSKEYS>
AAADcfB7MQAAAAAAAAAAAAAAAAAAAAAAAAA8YIAAAAAAAAABQAAAHwAQAAAADSzhmA4zBoPABACIAiBCEACCCAAgIAAIiIAODIiMJiKE8RuGOCjsxhOIqAeQ0AIOIAAAAAAAAABAAAAAAAAAAAAAAAAAAA==

> <PUBCHEM_IUPAC_OPENEYE_NAME>
1-[(4-fluorophenyl)methyl]-3-[(4-isobutoxyphenyl)methyl]-1-(1-methyl-4-piperidyl)urea

> <PUBCHEM_IUPAC_CAS_NAME>
1-[(4-fluorophenyl)methyl]-1-(1-methyl-4-piperidinyl)-3-[[4-(2-methylpropoxy)phenyl]methyl]urea

> <PUBCHEM_IUPAC_NAME_MARKUP>
1-[(4-fluorophenyl)methyl]-1-(1-methylpiperidin-4-yl)-3-[[4-(2-methylpropoxy)phenyl]methyl]urea

> <PUBCHEM_IUPAC_NAME>
1-[(4-fluorophenyl)methyl]-1-(1-methylpiperidin-4-yl)-3-[[4-(2-methylpropoxy)phenyl]methyl]urea

> <PUBCHEM_IUPAC_SYSTEMATIC_NAME>
1-[(4-fluorophenyl)methyl]-1-(1-methylpiperidin-4-yl)-3-[[4-(2-methylpropoxy)phenyl]methyl]urea

> <PUBCHEM_IUPAC_TRADITIONAL_NAME>
1-(4-fluorobenzyl)-3-(4-isobutoxybenzyl)-1-(1-methyl-4-piperidyl)urea

> <PUBCHEM_IUPAC_INCHI>
InChI=1S/C25H34FN3O2/c1-19(2)18-31-24-10-6-20(7-11-24)16-27-25(30)29(23-12-14-28(3)15-13-23)17-21-4-8-22(26)9-5-21/h4-11,19,23H,12-18H2,1-3H3,(H,27,30)

> <PUBCHEM_IUPAC_INCHIKEY>
RKEWSXXUOLRFBX-UHFFFAOYSA-N

> <PUBCHEM_XLOGP3_AA>
4.5

> <PUBCHEM_EXACT_MASS>
427.26350550

> <PUBCHEM_MOLECULAR_FORMULA>
C25H34FN3O2

> <PUBCHEM_MOLECULAR_WEIGHT>
427.6

> <PUBCHEM_SMILES>
CC(C)COC1=CC=C(C=C1)CNC(=O)N(CC2=CC=C(C=C2)F)C3CCN(CC3)C

> <PUBCHEM_CONNECTIVITY_SMILES>
CC(C)COC1=CC=C(C=C1)CNC(=O)N(CC2=CC=C(C=C2)F)C3CCN(CC3)C

> <PUBCHEM_CACTVS_TPSA>
44.8

> <PUBCHEM_MONOISOTOPIC_WEIGHT>
427.26350550

> <PUBCHEM_TOTAL_CHARGE>
0

> <PUBCHEM_HEAVY_ATOM_COUNT>
31

> <PUBCHEM_ATOM_DEF_STEREO_COUNT>
0

> <PUBCHEM_ATOM_UDEF_STEREO_COUNT>
0

> <PUBCHEM_BOND_DEF_STEREO_COUNT>
0

> <PUBCHEM_BOND_UDEF_STEREO_COUNT>
0

> <PUBCHEM_ISOTOPIC_ATOM_COUNT>
0

> <PUBCHEM_COMPONENT_COUNT>
1

> <PUBCHEM_CACTVS_TAUTO_COUNT>
-1

> <PUBCHEM_COORDINATE_TYPE>
1
5
255

> <PUBCHEM_BONDANNOTATIONS>
15  17  8
15  18  8
17  20  8
18  21  8
19  23  8
19  24  8
20  22  8
21  22  8
23  27  8
24  28  8
26  27  8
26  28  8

$$$$
71360
  -OEChem-08112611012D

 58 61  0     0  0  0  0  0  0999 V2000
    2.0000   -5.7581    0.0000 F   0  0  0  0  0  0  0  0  0  0  0  0
    5.5443   -5.5628    0.0000 O   0  0  0  0  0  0  0  0  0  0  0  0
    9.0546    1.2117    0.0000 O   0  0  0  0  0  0  0  0  0  0  0  0
    7.7189    2.7003    0.0000 O   0  0  0  0  0  0  0  0  0  0  0  0
    9.6294    5.7581    0.0000 O   0  0  0  0  0  0  0  0  0  0  0  0
    6.4763   -1.1018    0.0000 N   0  0  0  0  0  0  0  0  0  0  0  0
    6.1279   -4.7581    0.0000 N   0  0  0  0  0  0  0  0  0  0  0  0
    5.8550   -3.0028    0.0000 C   0  0  0  0  0  0  0  0  0  0  0  0
    6.8335   -2.7966    0.0000 C   0  0  0  0  0  0  0  0  0  0  0  0
    5.1871   -2.2585    0.0000 C   0  0  0  0  0  0  0  0  0  0  0  0
    7.1441   -1.8461    0.0000 C   0  0  0  0  0  0  0  0  0  0  0  0
    5.4978   -1.3080    0.0000 C   0  0  0  0  0  0  0  0  0  0  0  0
    6.7870   -0.1513    0.0000 C   0  0  0  0  0  0  0  0  0  0  0  0
    5.5443   -3.9533    0.0000 C   0  0  0  0  0  0  0  0  0  0  0  0
    7.7655    0.0550    0.0000 C   0  0  0  0  0  0  0  0  0  0  0  0
    4.5981   -4.2581    0.0000 C   0  0  0  0  0  0  0  0  0  0  0  0
    4.5981   -5.2581    0.0000 C   0  0  0  0  0  0  0  0  0  0  0  0
    8.0761    1.0055    0.0000 C   0  0  0  0  0  0  0  0  0  0  0  0
    3.7321   -3.7581    0.0000 C   0  0  0  0  0  0  0  0  0  0  0  0
    3.7321   -5.7581    0.0000 C   0  0  0  0  0  0  0  0  0  0  0  0
    2.8660   -4.2581    0.0000 C   0  0  0  0  0  0  0  0  0  0  0  0
    2.8660   -5.2581    0.0000 C   0  0  0  0  0  0  0  0  0  0  0  0
    9.3653    2.1622    0.0000 C   0  0  0  0  0  0  0  0  0  0  0  0
    8.6974    2.9065    0.0000 C   0  0  0  0  0  0  0  0  0  0  0  0
   10.3438    2.3684    0.0000 C   0  0  0  0  0  0  0  0  0  0  0  0
    9.0081    3.8570    0.0000 C   0  0  0  0  0  0  0  0  0  0  0  0
   10.6545    3.3190    0.0000 C   0  0  0  0  0  0  0  0  0  0  0  0
    9.9866    4.0633    0.0000 C   0  0  0  0  0  0  0  0  0  0  0  0
   10.2973    5.0138    0.0000 C   0  0  0  0  0  0  0  0  0  0  0  0
    7.0511    3.4446    0.0000 C   0  0  0  0  0  0  0  0  0  0  0  0
   11.2758    5.2200    0.0000 C   0  0  0  0  0  0  0  0  0  0  0  0
    6.2690   -3.4643    0.0000 H   0  0  0  0  0  0  0  0  0  0  0  0
    6.8540   -3.4163    0.0000 H   0  0  0  0  0  0  0  0  0  0  0  0
    7.4473   -2.8840    0.0000 H   0  0  0  0  0  0  0  0  0  0  0  0
    4.6402   -1.9665    0.0000 H   0  0  0  0  0  0  0  0  0  0  0  0
    4.8046   -2.7464    0.0000 H   0  0  0  0  0  0  0  0  0  0  0  0
    7.6911   -2.1381    0.0000 H   0  0  0  0  0  0  0  0  0  0  0  0
    7.5267   -1.3582    0.0000 H   0  0  0  0  0  0  0  0  0  0  0  0
    5.4772   -0.6883    0.0000 H   0  0  0  0  0  0  0  0  0  0  0  0
    4.8840   -1.2207    0.0000 H   0  0  0  0  0  0  0  0  0  0  0  0
    6.7664    0.4684    0.0000 H   0  0  0  0  0  0  0  0  0  0  0  0
    6.1731   -0.0639    0.0000 H   0  0  0  0  0  0  0  0  0  0  0  0
    7.7860   -0.5647    0.0000 H   0  0  0  0  0  0  0  0  0  0  0  0
    8.3793   -0.0324    0.0000 H   0  0  0  0  0  0  0  0  0  0  0  0
    8.0556    1.6251    0.0000 H   0  0  0  0  0  0  0  0  0  0  0  0
    7.4623    1.0928    0.0000 H   0  0  0  0  0  0  0  0  0  0  0  0
    3.7321   -3.1381    0.0000 H   0  0  0  0  0  0  0  0  0  0  0  0
    3.7321   -6.3781    0.0000 H   0  0  0  0  0  0  0  0  0  0  0  0
    2.3291   -3.9481    0.0000 H   0  0  0  0  0  0  0  0  0  0  0  0
   10.7578    1.9070    0.0000 H   0  0  0  0  0  0  0  0  0  0  0  0
    8.5940    4.3185    0.0000 H   0  0  0  0  0  0  0  0  0  0  0  0
   11.2611    3.4468    0.0000 H   0  0  0  0  0  0  0  0  0  0  0  0
    7.5126    3.8587    0.0000 H   0  0  0  0  0  0  0  0  0  0  0  0
    6.6370    3.9061    0.0000 H   0  0  0  0  0  0  0  0  0  0  0  0
    6.5896    3.0305    0.0000 H   0  0  0  0  0  0  0  0  0  0  0  0
   11.4036    4.6133    0.0000 H   0  0  0  0  0  0  0  0  0  0  0  0
   11.8824    5.3479    0.0000 H   0  0  0  0  0  0  0  0  0  0  0  0
   11.1479    5.8267    0.0000 H   0  0  0  0  0  0  0  0  0  0  0  0
  1 22  1  0  0  0  0
  2  7  1  0  0  0  0
  2 17  1  0  0  0  0
  3 18  1  0  0  0  0
  3 23  1  0  0  0  0
  4 24  1  0  0  0  0
  4 30  1  0  0  0  0
  5 29  2  0  0  0  0
  6 11  1  0  0  0  0
  6 12  1  0  0  0  0
  6 13  1  0  0  0  0
  7 14  2  0  0  0  0
  8  9  1  0  0  0  0
  8 10  1  0  0  0  0
  8 14  1  0  0  0  0
  8 32  1  0  0  0  0
  9 11  1  0  0  0  0
  9 33  1  0  0  0  0
  9 34  1  0  0  0  0
 10 12  1  0  0  0  0
 10 35  1  0  0  0  0
 10 36  1  0  0  0  0
 11 37  1  0  0  0  0
 11 38  1  0  0  0  0
 12 39  1  0  0  0  0
 12 40  1  0  0  0  0
 13 15  1  0  0  0  0
 13 41  1  0  0  0  0
 13 42  1  0  0  0  0
 14 16  1  0  0  0  0
 15 18  1  0  0  0  0
 15 43  1  0  0  0  0
 15 44  1  0  0  0  0
 16 17  2  0  0  0  0
 16 19  1  0  0  0  0
 17 20  1  0  0  0  0
 18 45  1  0  0  0  0
 18 46  1  0  0  0  0
 19 21  2  0  0  0  0
 19 47  1  0  0  0  0
 20 22  2  0  0  0  0
 20 48  1  0  0  0  0
 21 22  1  0  0  0  0
 21 49  1  0  0  0  0
 23 24  2  0  0  0  0
 23 25  1  0  0  0  0
 24 26  1  0  0  0  0
 25 27  2  0  0  0  0
 25 50  1  0  0  0  0
 26 28  2  0  0  0  0
 26 51  1  0  0  0  0
 27 28  1  0  0  0  0
 27 52  1  0  0  0  0
 28 29  1  0  0  0  0
 29 31  1  0  0  0  0
 30 53  1  0  0  0  0
 30 54  1  0  0  0  0
 30 55  1  0  0  0  0
 31 56  1  0  0  0  0
 31 57  1  0  0  0  0
 31 58  1  0  0  0  0
M  END
> <PUBCHEM_COMPOUND_CID>
71360

> <PUBCHEM_COMPOUND_CANONICALIZED>
1

> <PUBCHEM_CACTVS_COMPLEXITY>
586

> <PUBCHEM_CACTVS_HBOND_ACCEPTOR>
7

> <PUBCHEM_CACTVS_HBOND_DONOR>
0

> <PUBCHEM_CACTVS_ROTATABLE_BOND>
8

> <PUBCHEM_CACTVS_SUBSKEYS>
AAADceB7OQAAAAAAAAAAAAAAAAAAAWAAAAA8YIAAAAAAAFgB9AAAHwAEAAAADQzhng4yhtMQBACpA6RyQgCCCAAkIAAomCE+zNoNJrqEtZuGOaLmwBmK6ceazPDOIAABAAAIQABAAAIAABCAAAAAAAAAAA==

> <PUBCHEM_IUPAC_OPENEYE_NAME>
1-[4-[3-[4-(6-fluoro-1,2-benzoxazol-3-yl)-1-piperidyl]propoxy]-3-methoxy-phenyl]ethanone

> <PUBCHEM_IUPAC_CAS_NAME>
1-[4-[3-[4-(6-fluoro-1,2-benzoxazol-3-yl)-1-piperidinyl]propoxy]-3-methoxyphenyl]ethanone

> <PUBCHEM_IUPAC_NAME_MARKUP>
1-[4-[3-[4-(6-fluoro-1,2-benzoxazol-3-yl)piperidin-1-yl]propoxy]-3-methoxyphenyl]ethanone

> <PUBCHEM_IUPAC_NAME>
1-[4-[3-[4-(6-fluoro-1,2-benzoxazol-3-yl)piperidin-1-yl]propoxy]-3-methoxyphenyl]ethanone

> <PUBCHEM_IUPAC_SYSTEMATIC_NAME>
1-[4-[3-[4-(6-fluoranyl-1,2-benzoxazol-3-yl)piperidin-1-yl]propoxy]-3-methoxy-phenyl]ethanone

> <PUBCHEM_IUPAC_TRADITIONAL_NAME>
1-[4-[3-[4-(6-fluoroindoxazen-3-yl)piperidino]propoxy]-3-methoxy-phenyl]ethanone

> <PUBCHEM_IUPAC_INCHI>
InChI=1S/C24H27FN2O4/c1-16(28)18-4-7-21(23(14-18)29-2)30-13-3-10-27-11-8-17(9-12-27)24-20-6-5-19(25)15-22(20)31-26-24/h4-7,14-15,17H,3,8-13H2,1-2H3

> <PUBCHEM_IUPAC_INCHIKEY>
XMXHEBAFVSFQEX-UHFFFAOYSA-N

> <PUBCHEM_XLOGP3_AA>
4.1

> <PUBCHEM_EXACT_MASS>
426.19548551

> <PUBCHEM_MOLECULAR_FORMULA>
C24H27FN2O4

> <PUBCHEM_MOLECULAR_WEIGHT>
426.5

> <PUBCHEM_SMILES>
CC(=O)C1=CC(=C(C=C1)OCCCN2CCC(CC2)C3=NOC4=C3C=CC(=C4)F)OC

> <PUBCHEM_CONNECTIVITY_SMILES>
CC(=O)C1=CC(=C(C=C1)OCCCN2CCC(CC2)C3=NOC4=C3C=CC(=C4)F)OC

> <PUBCHEM_CACTVS_TPSA>
64.8

> <PUBCHEM_MONOISOTOPIC_WEIGHT>
426.19548551

> <PUBCHEM_TOTAL_CHARGE>
0

> <PUBCHEM_HEAVY_ATOM_COUNT>
31

> <PUBCHEM_ATOM_DEF_STEREO_COUNT>
0

> <PUBCHEM_ATOM_UDEF_STEREO_COUNT>
0

> <PUBCHEM_BOND_DEF_STEREO_COUNT>
0

> <PUBCHEM_BOND_UDEF_STEREO_COUNT>
0

> <PUBCHEM_ISOTOPIC_ATOM_COUNT>
0

> <PUBCHEM_COMPONENT_COUNT>
1

> <PUBCHEM_CACTVS_TAUTO_COUNT>
-1

> <PUBCHEM_COORDINATE_TYPE>
1
5
255

> <PUBCHEM_BONDANNOTATIONS>
14  16  8
16  17  8
16  19  8
17  20  8
19  21  8
2  17  8
2  7  8
20  22  8
21  22  8
23  24  8
23  25  8
24  26  8
25  27  8
26  28  8
27  28  8
7  14  8

$$$$
115237
  -OEChem-08112611012D

 58 62  0     1  0  0  0  0  0999 V2000
   14.5715   -0.8027    0.0000 F   0  0  0  0  0  0  0  0  0  0  0  0
   11.8031   -3.0244    0.0000 O   0  0  0  0  0  0  0  0  0  0  0  0
    2.9176    2.7082    0.0000 O   0  0  0  0  0  0  0  0  0  0  0  0
    4.6660   -1.3264    0.0000 O   0  0  0  0  0  0  0  0  0  0  0  0
    8.1301   -0.3264    0.0000 N   0  0  0  0  0  0  0  0  0  0  0  0
    3.8000    0.1736    0.0000 N   0  0  0  0  0  0  0  0  0  0  0  0
   10.8313   -2.8152    0.0000 N   0  0  0  0  0  0  0  0  0  0  0  0
    4.6660    1.6736    0.0000 N   0  0  0  0  0  0  0  0  0  0  0  0
    9.8622   -1.3264    0.0000 C   0  0  0  0  0  0  0  0  0  0  0  0
    8.9962   -1.8264    0.0000 C   0  0  0  0  0  0  0  0  0  0  0  0
    9.8622   -0.3264    0.0000 C   0  0  0  0  0  0  0  0  0  0  0  0
    8.1301   -1.3264    0.0000 C   0  0  0  0  0  0  0  0  0  0  0  0
    8.9962    0.1736    0.0000 C   0  0  0  0  0  0  0  0  0  0  0  0
    7.2641    0.1736    0.0000 C   0  0  0  0  0  0  0  0  0  0  0  0
   10.7282   -1.8264    0.0000 C   0  0  0  0  0  0  0  0  0  0  0  0
    6.3981   -0.3264    0.0000 C   0  0  0  0  0  0  0  0  0  0  0  0
    5.5321    0.1736    0.0000 C   0  0  0  0  0  0  0  0  0  0  0  0
    2.9061   -0.3611    0.0000 C   0  0  0  0  0  0  0  0  0  0  0  0
    2.9061    1.7082    0.0000 C   0  0  3  0  0  0  0  0  0  0  0  0
    2.0000    0.1528    0.0000 C   0  0  0  0  0  0  0  0  0  0  0  0
    2.0000    1.1944    0.0000 C   0  0  0  0  0  0  0  0  0  0  0  0
    3.8000    1.1736    0.0000 C   0  0  0  0  0  0  0  0  0  0  0  0
   11.6360   -1.4213    0.0000 C   0  0  0  0  0  0  0  0  0  0  0  0
    4.6660   -0.3264    0.0000 C   0  0  0  0  0  0  0  0  0  0  0  0
    5.5321    1.1736    0.0000 C   0  0  0  0  0  0  0  0  0  0  0  0
   12.3038   -2.1656    0.0000 C   0  0  0  0  0  0  0  0  0  0  0  0
   11.9467   -0.4708    0.0000 C   0  0  0  0  0  0  0  0  0  0  0  0
    6.3981    1.6736    0.0000 C   0  0  0  0  0  0  0  0  0  0  0  0
   13.2823   -1.9594    0.0000 C   0  0  0  0  0  0  0  0  0  0  0  0
   12.9252   -0.2646    0.0000 C   0  0  0  0  0  0  0  0  0  0  0  0
   13.5930   -1.0089    0.0000 C   0  0  0  0  0  0  0  0  0  0  0  0
    9.8622   -1.9464    0.0000 H   0  0  0  0  0  0  0  0  0  0  0  0
    8.5976   -2.3014    0.0000 H   0  0  0  0  0  0  0  0  0  0  0  0
    9.3947   -2.3014    0.0000 H   0  0  0  0  0  0  0  0  0  0  0  0
   10.4728   -0.4341    0.0000 H   0  0  0  0  0  0  0  0  0  0  0  0
   10.0742    0.2562    0.0000 H   0  0  0  0  0  0  0  0  0  0  0  0
    7.5196   -1.2188    0.0000 H   0  0  0  0  0  0  0  0  0  0  0  0
    7.9181   -1.9090    0.0000 H   0  0  0  0  0  0  0  0  0  0  0  0
    9.3947    0.6485    0.0000 H   0  0  0  0  0  0  0  0  0  0  0  0
    8.5976    0.6485    0.0000 H   0  0  0  0  0  0  0  0  0  0  0  0
    7.6626    0.6485    0.0000 H   0  0  0  0  0  0  0  0  0  0  0  0
    6.8656    0.6485    0.0000 H   0  0  0  0  0  0  0  0  0  0  0  0
    5.9996   -0.8014    0.0000 H   0  0  0  0  0  0  0  0  0  0  0  0
    6.7966   -0.8014    0.0000 H   0  0  0  0  0  0  0  0  0  0  0  0
    2.5124   -0.8401    0.0000 H   0  0  0  0  0  0  0  0  0  0  0  0
    3.3107   -0.8309    0.0000 H   0  0  0  0  0  0  0  0  0  0  0  0
    3.4471    2.0110    0.0000 H   0  0  0  0  0  0  0  0  0  0  0  0
    1.3891    0.2588    0.0000 H   0  0  0  0  0  0  0  0  0  0  0  0
    1.7909   -0.4309    0.0000 H   0  0  0  0  0  0  0  0  0  0  0  0
    1.7909    1.7781    0.0000 H   0  0  0  0  0  0  0  0  0  0  0  0
    1.3891    1.0883    0.0000 H   0  0  0  0  0  0  0  0  0  0  0  0
   11.5326   -0.0093    0.0000 H   0  0  0  0  0  0  0  0  0  0  0  0
    6.7081    1.1366    0.0000 H   0  0  0  0  0  0  0  0  0  0  0  0
    6.9350    1.9836    0.0000 H   0  0  0  0  0  0  0  0  0  0  0  0
    6.0881    2.2105    0.0000 H   0  0  0  0  0  0  0  0  0  0  0  0
    2.3843    3.0244    0.0000 H   0  0  0  0  0  0  0  0  0  0  0  0
   13.6964   -2.4209    0.0000 H   0  0  0  0  0  0  0  0  0  0  0  0
   13.1178    0.3247    0.0000 H   0  0  0  0  0  0  0  0  0  0  0  0
  1 31  1  0  0  0  0
  2  7  1  0  0  0  0
  2 26  1  0  0  0  0
  3 19  1  0  0  0  0
  3 56  1  0  0  0  0
  4 24  2  0  0  0  0
  5 12  1  0  0  0  0
  5 13  1  0  0  0  0
  5 14  1  0  0  0  0
  6 18  1  0  0  0  0
  6 22  1  0  0  0  0
  6 24  1  0  0  0  0
  7 15  2  0  0  0  0
  8 22  2  0  0  0  0
  8 25  1  0  0  0  0
  9 10  1  0  0  0  0
  9 11  1  0  0  0  0
  9 15  1  0  0  0  0
  9 32  1  0  0  0  0
 10 12  1  0  0  0  0
 10 33  1  0  0  0  0
 10 34  1  0  0  0  0
 11 13  1  0  0  0  0
 11 35  1  0  0  0  0
 11 36  1  0  0  0  0
 12 37  1  0  0  0  0
 12 38  1  0  0  0  0
 13 39  1  0  0  0  0
 13 40  1  0  0  0  0
 14 16  1  0  0  0  0
 14 41  1  0  0  0  0
 14 42  1  0  0  0  0
 15 23  1  0  0  0  0
 16 17  1  0  0  0  0
 16 43  1  0  0  0  0
 16 44  1  0  0  0  0
 17 24  1  0  0  0  0
 17 25  2  0  0  0  0
 18 20  1  0  0  0  0
 18 45  1  0  0  0  0
 18 46  1  0  0  0  0
 19 21  1  0  0  0  0
 19 22  1  0  0  0  0
 19 47  1  0  0  0  0
 20 21  1  0  0  0  0
 20 48  1  0  0  0  0
 20 49  1  0  0  0  0
 21 50  1  0  0  0  0
 21 51  1  0  0  0  0
 23 26  2  0  0  0  0
 23 27  1  0  0  0  0
 25 28  1  0  0  0  0
 26 29  1  0  0  0  0
 27 30  2  0  0  0  0
 27 52  1  0  0  0  0
 28 53  1  0  0  0  0
 28 54  1  0  0  0  0
 28 55  1  0  0  0  0
 29 31  2  0  0  0  0
 29 57  1  0  0  0  0
 30 31  1  0  0  0  0
 30 58  1  0  0  0  0
M  END
> <PUBCHEM_COMPOUND_CID>
115237

> <PUBCHEM_COMPOUND_CANONICALIZED>
1

> <PUBCHEM_CACTVS_COMPLEXITY>
764

> <PUBCHEM_CACTVS_HBOND_ACCEPTOR>
7

> <PUBCHEM_CACTVS_HBOND_DONOR>
1

> <PUBCHEM_CACTVS_ROTATABLE_BOND>
4

> <PUBCHEM_CACTVS_SUBSKEYS>
AAADceB7sQAAAAAAAAAAAAAAAAAAAWAAAAA8WIEAAAAAAFiB8AAAHwAECAAADRzhng4zhtMQAgCpA6dydgSCAAEkIAApmCE+TNoKNrqAnZOEcYBmxhmYyce8yOCOAAAAAAAIAAAAAAAAABAAAAAAAAAAAA==

> <PUBCHEM_IUPAC_OPENEYE_NAME>
3-[2-[4-(6-fluoro-1,2-benzoxazol-3-yl)-1-piperidyl]ethyl]-9-hydroxy-2-methyl-6,7,8,9-tetrahydropyrido[1,2-a]pyrimidin-4-one

> <PUBCHEM_IUPAC_CAS_NAME>
3-[2-[4-(6-fluoro-1,2-benzoxazol-3-yl)-1-piperidinyl]ethyl]-9-hydroxy-2-methyl-6,7,8,9-tetrahydropyrido[1,2-a]pyrimidin-4-one

> <PUBCHEM_IUPAC_NAME_MARKUP>
3-[2-[4-(6-fluoro-1,2-benzoxazol-3-yl)piperidin-1-yl]ethyl]-9-hydroxy-2-methyl-6,7,8,9-tetrahydropyrido[1,2-a]pyrimidin-4-one

> <PUBCHEM_IUPAC_NAME>
3-[2-[4-(6-fluoro-1,2-benzoxazol-3-yl)piperidin-1-yl]ethyl]-9-hydroxy-2-methyl-6,7,8,9-tetrahydropyrido[1,2-a]pyrimidin-4-one

> <PUBCHEM_IUPAC_SYSTEMATIC_NAME>
3-[2-[4-(6-fluoranyl-1,2-benzoxazol-3-yl)piperidin-1-yl]ethyl]-2-methyl-9-oxidanyl-6,7,8,9-tetrahydropyrido[1,2-a]pyrimidin-4-one

> <PUBCHEM_IUPAC_TRADITIONAL_NAME>
3-[2-[4-(6-fluoroindoxazen-3-yl)piperidino]ethyl]-9-hydroxy-2-methyl-6,7,8,9-tetrahydropyrido[1,2-a]pyrimidin-4-one

> <PUBCHEM_IUPAC_INCHI>
InChI=1S/C23H27FN4O3/c1-14-17(23(30)28-9-2-3-19(29)22(28)25-14)8-12-27-10-6-15(7-11-27)21-18-5-4-16(24)13-20(18)31-26-21/h4-5,13,15,19,29H,2-3,6-12H2,1H3

> <PUBCHEM_IUPAC_INCHIKEY>
PMXMIIMHBWHSKN-UHFFFAOYSA-N

> <PUBCHEM_XLOGP3_AA>
2.2

> <PUBCHEM_EXACT_MASS>
426.20671890

> <PUBCHEM_MOLECULAR_FORMULA>
C23H27FN4O3

> <PUBCHEM_MOLECULAR_WEIGHT>
426.5

> <PUBCHEM_SMILES>
CC1=C(C(=O)N2CCCC(C2=N1)O)CCN3CCC(CC3)C4=NOC5=C4C=CC(=C5)F

> <PUBCHEM_CONNECTIVITY_SMILES>
CC1=C(C(=O)N2CCCC(C2=N1)O)CCN3CCC(CC3)C4=NOC5=C4C=CC(=C5)F

> <PUBCHEM_CACTVS_TPSA>
82.2

> <PUBCHEM_MONOISOTOPIC_WEIGHT>
426.20671890

> <PUBCHEM_TOTAL_CHARGE>
0

> <PUBCHEM_HEAVY_ATOM_COUNT>
31

> <PUBCHEM_ATOM_DEF_STEREO_COUNT>
0

> <PUBCHEM_ATOM_UDEF_STEREO_COUNT>
1

> <PUBCHEM_BOND_DEF_STEREO_COUNT>
0

> <PUBCHEM_BOND_UDEF_STEREO_COUNT>
0

> <PUBCHEM_ISOTOPIC_ATOM_COUNT>
0

> <PUBCHEM_COMPONENT_COUNT>
1

> <PUBCHEM_CACTVS_TAUTO_COUNT>
-1

> <PUBCHEM_COORDINATE_TYPE>
1
5
255

> <PUBCHEM_BONDANNOTATIONS>
15  23  8
17  24  8
17  25  8
2  26  8
2  7  8
23  26  8
23  27  8
26  29  8
27  30  8
29  31  8
19  3  3
30  31  8
6  22  8
6  24  8
7  15  8
8  22  8
8  25  8

$$$$
