5281881
     RDKit          2D

 55 58  0  0  0  0  0  0  0  0999 V2000
    4.6660   -4.2927    0.0000 S   0  0  0  0  0  0  0  0  0  0  0  0
    9.0603   -1.7652    0.0000 F   0  0  0  0  0  0  0  0  0  0  0  0
    8.6995   -3.1326    0.0000 F   0  0  0  0  0  0  0  0  0  0  0  0
    7.6928   -1.4044    0.0000 F   0  0  0  0  0  0  0  0  0  0  0  0
    9.8622    3.7073    0.0000 O   0  0  0  0  0  0  0  0  0  0  0  0
    6.3981    0.7073    0.0000 N   0  0  0  0  0  0  0  0  0  0  0  0
    8.1301    1.7073    0.0000 N   0  0  0  0  0  0  0  0  0  0  0  0
    6.3981    1.7073    0.0000 C   0  0  0  0  0  0  0  0  0  0  0  0
    7.2641    0.2073    0.0000 C   0  0  0  0  0  0  0  0  0  0  0  0
    7.2641    2.2073    0.0000 C   0  0  0  0  0  0  0  0  0  0  0  0
    8.1301    0.7073    0.0000 C   0  0  0  0  0  0  0  0  0  0  0  0
    5.5321    0.2073    0.0000 C   0  0  0  0  0  0  0  0  0  0  0  0
    8.9962    2.2073    0.0000 C   0  0  0  0  0  0  0  0  0  0  0  0
    5.5321   -0.7927    0.0000 C   0  0  0  0  0  0  0  0  0  0  0  0
    8.9962    3.2073    0.0000 C   0  0  0  0  0  0  0  0  0  0  0  0
    4.6660   -1.2927    0.0000 C   0  0  0  0  0  0  0  0  0  0  0  0
    4.6660   -2.2927    0.0000 C   0  0  0  0  0  0  0  0  0  0  0  0
    5.5321   -2.7927    0.0000 C   0  0  0  0  0  0  0  0  0  0  0  0
    3.8000   -2.7927    0.0000 C   0  0  0  0  0  0  0  0  0  0  0  0
    5.5321   -3.7927    0.0000 C   0  0  0  0  0  0  0  0  0  0  0  0
    3.8000   -3.7927    0.0000 C   0  0  0  0  0  0  0  0  0  0  0  0
    6.4260   -2.2580    0.0000 C   0  0  0  0  0  0  0  0  0  0  0  0
    2.9061   -2.2580    0.0000 C   0  0  0  0  0  0  0  0  0  0  0  0
    7.3321   -2.7719    0.0000 C   0  0  0  0  0  0  0  0  0  0  0  0
    6.4260   -4.3273    0.0000 C   0  0  0  0  0  0  0  0  0  0  0  0
    2.9061   -4.3273    0.0000 C   0  0  0  0  0  0  0  0  0  0  0  0
    7.3321   -3.8135    0.0000 C   0  0  0  0  0  0  0  0  0  0  0  0
    2.0000   -2.7719    0.0000 C   0  0  0  0  0  0  0  0  0  0  0  0
    2.0000   -3.8135    0.0000 C   0  0  0  0  0  0  0  0  0  0  0  0
    8.1962   -2.2685    0.0000 C   0  0  0  0  0  0  0  0  0  0  0  0
    6.1860    2.2899    0.0000 H   0  0  0  0  0  0  0  0  0  0  0  0
    5.7875    1.5997    0.0000 H   0  0  0  0  0  0  0  0  0  0  0  0
    6.8656   -0.2676    0.0000 H   0  0  0  0  0  0  0  0  0  0  0  0
    7.6626   -0.2676    0.0000 H   0  0  0  0  0  0  0  0  0  0  0  0
    7.6626    2.6823    0.0000 H   0  0  0  0  0  0  0  0  0  0  0  0
    6.8656    2.6823    0.0000 H   0  0  0  0  0  0  0  0  0  0  0  0
    8.3422    0.1247    0.0000 H   0  0  0  0  0  0  0  0  0  0  0  0
    8.7407    0.8150    0.0000 H   0  0  0  0  0  0  0  0  0  0  0  0
    5.3200    0.7899    0.0000 H   0  0  0  0  0  0  0  0  0  0  0  0
    4.9215    0.0997    0.0000 H   0  0  0  0  0  0  0  0  0  0  0  0
    9.2082    1.6247    0.0000 H   0  0  0  0  0  0  0  0  0  0  0  0
    9.6067    2.3150    0.0000 H   0  0  0  0  0  0  0  0  0  0  0  0
    5.7441   -1.3753    0.0000 H   0  0  0  0  0  0  0  0  0  0  0  0
    6.1426   -0.6850    0.0000 H   0  0  0  0  0  0  0  0  0  0  0  0
    8.7841    3.7899    0.0000 H   0  0  0  0  0  0  0  0  0  0  0  0
    8.3856    3.0997    0.0000 H   0  0  0  0  0  0  0  0  0  0  0  0
    4.1291   -0.9827    0.0000 H   0  0  0  0  0  0  0  0  0  0  0  0
    6.4188   -1.6381    0.0000 H   0  0  0  0  0  0  0  0  0  0  0  0
    2.9132   -1.6381    0.0000 H   0  0  0  0  0  0  0  0  0  0  0  0
    9.8622    4.3273    0.0000 H   0  0  0  0  0  0  0  0  0  0  0  0
    6.4188   -4.9473    0.0000 H   0  0  0  0  0  0  0  0  0  0  0  0
    2.9132   -4.9473    0.0000 H   0  0  0  0  0  0  0  0  0  0  0  0
    7.8678   -4.1256    0.0000 H   0  0  0  0  0  0  0  0  0  0  0  0
    1.4643   -2.4598    0.0000 H   0  0  0  0  0  0  0  0  0  0  0  0
    1.4643   -4.1256    0.0000 H   0  0  0  0  0  0  0  0  0  0  0  0
  1 20  1  0
  1 21  1  0
  2 30  1  0
  3 30  1  0
  4 30  1  0
  5 15  1  0
  5 50  1  0
  6  8  1  0
  6  9  1  0
  6 12  1  0
  7 10  1  0
  7 11  1  0
  7 13  1  0
  8 10  1  0
  8 31  1  0
  8 32  1  0
  9 11  1  0
  9 33  1  0
  9 34  1  0
 10 35  1  0
 10 36  1  0
 11 37  1  0
 11 38  1  0
 12 14  1  0
 12 39  1  0
 12 40  1  0
 13 15  1  0
 13 41  1  0
 13 42  1  0
 14 16  1  0
 14 43  1  0
 14 44  1  0
 15 45  1  0
 15 46  1  0
 16 17  2  0
 16 47  1  0
 17 18  1  0
 17 19  1  0
 18 20  2  0
 18 22  1  0
 19 21  1  0
 19 23  2  0
 20 25  1  0
 21 26  2  0
 22 24  2  0
 22 48  1  0
 23 28  1  0
 23 49  1  0
 24 27  1  0
 24 30  1  0
 25 27  2  0
 25 51  1  0
 26 29  1  0
 26 52  1  0
 27 53  1  0
 28 29  2  0
 28 54  1  0
 29 55  1  0
M  END
>  <PUBCHEM_COMPOUND_CID>  (1) 
5281881

>  <PUBCHEM_COMPOUND_CANONICALIZED>  (1) 
1

>  <PUBCHEM_CACTVS_COMPLEXITY>  (1) 
591

>  <PUBCHEM_CACTVS_HBOND_ACCEPTOR>  (1) 
7

>  <PUBCHEM_CACTVS_HBOND_DONOR>  (1) 
1

>  <PUBCHEM_CACTVS_ROTATABLE_BOND>  (1) 
5

>  <PUBCHEM_CACTVS_SUBSKEYS>  (1) 
AAADceB7IYBAAAAAAAAAAAAAAAAAAAAAAAA8aIEAAAAAAACRQAAAHwQACAAADADh2BYwAYMAAgiAAiBCAAACAAAgCBAIiBgIAIgKcCKgERCUIAAggAC4iAcAgMAOEAACAAAEAAAgAAQAAAgAAAAAAAAAAA==

>  <PUBCHEM_IUPAC_OPENEYE_NAME>  (1) 
2-[4-[(3Z)-3-[2-(trifluoromethyl)thioxanthen-9-ylidene]propyl]piperazin-1-yl]ethanol

>  <PUBCHEM_IUPAC_CAS_NAME>  (1) 
2-[4-[(3Z)-3-[2-(trifluoromethyl)-9-thioxanthenylidene]propyl]-1-piperazinyl]ethanol

>  <PUBCHEM_IUPAC_NAME_MARKUP>  (1) 
2-[4-[(3<I>Z</I>)-3-[2-(trifluoromethyl)thioxanthen-9-ylidene]propyl]piperazin-1-yl]ethanol

>  <PUBCHEM_IUPAC_NAME>  (1) 
2-[4-[(3Z)-3-[2-(trifluoromethyl)thioxanthen-9-ylidene]propyl]piperazin-1-yl]ethanol

>  <PUBCHEM_IUPAC_SYSTEMATIC_NAME>  (1) 
2-[4-[(3Z)-3-[2-(trifluoromethyl)thioxanthen-9-ylidene]propyl]piperazin-1-yl]ethanol

>  <PUBCHEM_IUPAC_TRADITIONAL_NAME>  (1) 
2-[4-[(3Z)-3-[2-(trifluoromethyl)thioxanthen-9-ylidene]propyl]piperazino]ethanol

>  <PUBCHEM_IUPAC_INCHI>  (1) 
InChI=1S/C23H25F3N2OS/c24-23(25,26)17-7-8-22-20(16-17)18(19-4-1-2-6-21(19)30-22)5-3-9-27-10-12-28(13-11-27)14-15-29/h1-2,4-8,16,29H,3,9-15H2/b18-5-

>  <PUBCHEM_IUPAC_INCHIKEY>  (1) 
NJMYODHXAKYRHW-DVZOWYKESA-N

>  <PUBCHEM_XLOGP3>  (1) 
4.5

>  <PUBCHEM_EXACT_MASS>  (1) 
434.16396908

>  <PUBCHEM_MOLECULAR_FORMULA>  (1) 
C23H25F3N2OS

>  <PUBCHEM_MOLECULAR_WEIGHT>  (1) 
434.5

>  <PUBCHEM_SMILES>  (1) 
C1CN(CCN1CC/C=C\2/C3=CC=CC=C3SC4=C2C=C(C=C4)C(F)(F)F)CCO

>  <PUBCHEM_CONNECTIVITY_SMILES>  (1) 
C1CN(CCN1CCC=C2C3=CC=CC=C3SC4=C2C=C(C=C4)C(F)(F)F)CCO

>  <PUBCHEM_CACTVS_TPSA>  (1) 
52

>  <PUBCHEM_MONOISOTOPIC_WEIGHT>  (1) 
434.16396908

>  <PUBCHEM_TOTAL_CHARGE>  (1) 
0

>  <PUBCHEM_HEAVY_ATOM_COUNT>  (1) 
30

>  <PUBCHEM_ATOM_DEF_STEREO_COUNT>  (1) 
0

>  <PUBCHEM_ATOM_UDEF_STEREO_COUNT>  (1) 
0

>  <PUBCHEM_BOND_DEF_STEREO_COUNT>  (1) 
1

>  <PUBCHEM_BOND_UDEF_STEREO_COUNT>  (1) 
0

>  <PUBCHEM_ISOTOPIC_ATOM_COUNT>  (1) 
0

>  <PUBCHEM_COMPONENT_COUNT>  (1) 
1

>  <PUBCHEM_CACTVS_TAUTO_COUNT>  (1) 
-1

>  <PUBCHEM_COORDINATE_TYPE>  (1) 
1
5
255

>  <PUBCHEM_BONDANNOTATIONS>  (1) 
18  20  8
18  22  8
19  21  8
19  23  8
20  25  8
21  26  8
22  24  8
23  28  8
24  27  8
25  27  8
26  29  8
28  29  8

$$$$
