213046
     RDKit          2D

 71 77  0  0  1  0  0  0  0  0999 V2000
   13.6273   -2.9906    0.0000 S   0  0  0  0  0  0  0  0  0  0  0  0
    4.9260   -1.1594    0.0000 O   0  0  0  0  0  0  0  0  0  0  0  0
    6.1267    2.1394    0.0000 O   0  0  0  0  0  0  0  0  0  0  0  0
    5.7829    0.3966    0.0000 N   0  0  0  0  0  0  0  0  0  0  0  0
    9.5416   -0.9714    0.0000 N   0  0  0  0  0  0  0  0  0  0  0  0
   11.4210   -1.6555    0.0000 N   0  0  0  0  0  0  0  0  0  0  0  0
   12.6339   -2.9533    0.0000 N   0  0  0  0  0  0  0  0  0  0  0  0
    2.8016    1.0420    0.0000 C   0  0  0  0  0  0  0  0  0  0  0  0
    2.5428    2.0080    0.0000 C   0  0  0  0  0  0  0  0  0  0  0  0
    4.1743    0.4500    0.0000 C   0  0  0  0  0  0  0  0  0  0  0  0
    4.5163    1.3897    0.0000 C   0  0  0  0  0  0  0  0  0  0  0  0
    3.2794    2.9906    0.0000 C   0  0  0  0  0  0  0  0  0  0  0  0
    1.4026    0.5332    0.0000 C   0  0  0  0  0  0  0  0  0  0  0  0
    1.1438    1.4992    0.0000 C   0  0  0  0  0  0  0  0  0  0  0  0
    4.9592   -0.1600    0.0000 C   0  0  0  0  0  0  0  0  0  0  0  0
    5.5097    1.3524    0.0000 C   0  0  0  0  0  0  0  0  0  0  0  0
    6.7225    0.0546    0.0000 C   0  0  0  0  0  0  0  0  0  0  0  0
    7.4886    0.6974    0.0000 C   0  0  0  0  0  0  0  0  0  0  0  0
    8.4283    0.3554    0.0000 C   0  0  0  0  0  0  0  0  0  0  0  0
    7.3149    1.6822    0.0000 C   0  0  0  0  0  0  0  0  0  0  0  0
    9.1943    0.9982    0.0000 C   0  0  0  0  0  0  0  0  0  0  0  0
    8.0810    2.3250    0.0000 C   0  0  0  0  0  0  0  0  0  0  0  0
    8.6019   -0.6294    0.0000 C   0  0  0  0  0  0  0  0  0  0  0  0
    9.0207    1.9830    0.0000 C   0  0  0  0  0  0  0  0  0  0  0  0
    9.7153   -1.9563    0.0000 C   0  0  0  0  0  0  0  0  0  0  0  0
   10.3077   -0.3287    0.0000 C   0  0  0  0  0  0  0  0  0  0  0  0
   10.6550   -2.2983    0.0000 C   0  0  0  0  0  0  0  0  0  0  0  0
   11.2474   -0.6707    0.0000 C   0  0  0  0  0  0  0  0  0  0  0  0
   12.3607   -1.9975    0.0000 C   0  0  0  0  0  0  0  0  0  0  0  0
   13.1843   -1.4409    0.0000 C   0  0  0  0  0  0  0  0  0  0  0  0
   13.9713   -2.0579    0.0000 C   0  0  0  0  0  0  0  0  0  0  0  0
   13.3252   -0.4509    0.0000 C   0  0  0  0  0  0  0  0  0  0  0  0
   14.8991   -1.6849    0.0000 C   0  0  0  0  0  0  0  0  0  0  0  0
   14.2531   -0.0779    0.0000 C   0  0  0  0  0  0  0  0  0  0  0  0
   15.0400   -0.6949    0.0000 C   0  0  0  0  0  0  0  0  0  0  0  0
    3.0216    0.2210    0.0000 H   0  0  0  0  0  0  0  0  0  0  0  0
    2.3228    2.8290    0.0000 H   0  0  0  0  0  0  0  0  0  0  0  0
    3.8836   -0.3487    0.0000 H   0  0  0  0  0  0  0  0  0  0  0  0
    4.8070    2.1885    0.0000 H   0  0  0  0  0  0  0  0  0  0  0  0
    2.9616    3.5229    0.0000 H   0  0  0  0  0  0  0  0  0  0  0  0
    3.8925    3.0825    0.0000 H   0  0  0  0  0  0  0  0  0  0  0  0
    1.5976   -0.0553    0.0000 H   0  0  0  0  0  0  0  0  0  0  0  0
    0.8087    0.3555    0.0000 H   0  0  0  0  0  0  0  0  0  0  0  0
    0.5498    1.3214    0.0000 H   0  0  0  0  0  0  0  0  0  0  0  0
    0.9489    2.0877    0.0000 H   0  0  0  0  0  0  0  0  0  0  0  0
    7.1975   -0.3439    0.0000 H   0  0  0  0  0  0  0  0  0  0  0  0
    6.4125   -0.4823    0.0000 H   0  0  0  0  0  0  0  0  0  0  0  0
    7.5963    0.0868    0.0000 H   0  0  0  0  0  0  0  0  0  0  0  0
    9.0109    0.1433    0.0000 H   0  0  0  0  0  0  0  0  0  0  0  0
    6.7323    1.4702    0.0000 H   0  0  0  0  0  0  0  0  0  0  0  0
    7.0049    2.2192    0.0000 H   0  0  0  0  0  0  0  0  0  0  0  0
    9.7769    1.2102    0.0000 H   0  0  0  0  0  0  0  0  0  0  0  0
    9.5043    0.4612    0.0000 H   0  0  0  0  0  0  0  0  0  0  0  0
    7.6060    2.7235    0.0000 H   0  0  0  0  0  0  0  0  0  0  0  0
    8.3910    2.8619    0.0000 H   0  0  0  0  0  0  0  0  0  0  0  0
    8.4943   -1.2400    0.0000 H   0  0  0  0  0  0  0  0  0  0  0  0
    7.9819   -0.6294    0.0000 H   0  0  0  0  0  0  0  0  0  0  0  0
    9.1283    2.5936    0.0000 H   0  0  0  0  0  0  0  0  0  0  0  0
    9.6407    1.9830    0.0000 H   0  0  0  0  0  0  0  0  0  0  0  0
    9.6076   -2.5668    0.0000 H   0  0  0  0  0  0  0  0  0  0  0  0
    9.0953   -1.9563    0.0000 H   0  0  0  0  0  0  0  0  0  0  0  0
    9.8327    0.0699    0.0000 H   0  0  0  0  0  0  0  0  0  0  0  0
   10.6177    0.2083    0.0000 H   0  0  0  0  0  0  0  0  0  0  0  0
   11.1299   -2.6968    0.0000 H   0  0  0  0  0  0  0  0  0  0  0  0
   10.3450   -2.8352    0.0000 H   0  0  0  0  0  0  0  0  0  0  0  0
   11.3550   -0.0601    0.0000 H   0  0  0  0  0  0  0  0  0  0  0  0
   11.8674   -0.6707    0.0000 H   0  0  0  0  0  0  0  0  0  0  0  0
   12.8373   -0.0683    0.0000 H   0  0  0  0  0  0  0  0  0  0  0  0
   15.3870   -2.0675    0.0000 H   0  0  0  0  0  0  0  0  0  0  0  0
   14.3404    0.5359    0.0000 H   0  0  0  0  0  0  0  0  0  0  0  0
   15.6153   -0.4636    0.0000 H   0  0  0  0  0  0  0  0  0  0  0  0
  1  7  1  0
  1 31  1  0
  2 15  2  0
  3 16  2  0
  4 15  1  0
  4 16  1  0
  4 17  1  0
  5 23  1  0
  5 25  1  0
  5 26  1  0
  6 27  1  0
  6 28  1  0
  6 29  1  0
  7 29  2  0
  8 10  1  0
  8 12  1  0
  8 13  1  0
  8 36  1  1
  9 11  1  0
  9 12  1  0
  9 14  1  0
  9 37  1  6
 10 11  1  0
 10 15  1  0
 10 38  1  6
 11 16  1  0
 11 39  1  6
 12 40  1  0
 12 41  1  0
 13 14  1  0
 13 42  1  0
 13 43  1  0
 14 44  1  0
 14 45  1  0
 18 17  1  0
 17 46  1  0
 17 47  1  0
 18 19  1  0
 18 20  1  0
 18 48  1  1
 19 21  1  0
 19 23  1  0
 19 49  1  6
 20 22  1  0
 20 50  1  0
 20 51  1  0
 21 24  1  0
 21 52  1  0
 21 53  1  0
 22 24  1  0
 22 54  1  0
 22 55  1  0
 23 56  1  0
 23 57  1  0
 24 58  1  0
 24 59  1  0
 25 27  1  0
 25 60  1  0
 25 61  1  0
 26 28  1  0
 26 62  1  0
 26 63  1  0
 27 64  1  0
 27 65  1  0
 28 66  1  0
 28 67  1  0
 29 30  1  0
 30 31  1  0
 30 32  2  0
 31 33  2  0
 32 34  1  0
 32 68  1  0
 33 35  1  0
 33 69  1  0
 34 35  2  0
 34 70  1  0
 35 71  1  0
M  END
>  <PUBCHEM_COMPOUND_CID>  (1) 
213046

>  <PUBCHEM_COMPOUND_CANONICALIZED>  (1) 
1

>  <PUBCHEM_CACTVS_COMPLEXITY>  (1) 
804

>  <PUBCHEM_CACTVS_HBOND_ACCEPTOR>  (1) 
6

>  <PUBCHEM_CACTVS_HBOND_DONOR>  (1) 
0

>  <PUBCHEM_CACTVS_ROTATABLE_BOND>  (1) 
5

>  <PUBCHEM_CACTVS_SUBSKEYS>  (1) 
AAADcfB7sABAAAAAAAAAAAAAAAAAAePECAA8YMEAAAAWAFgB8AAAHgQAQAAADQDB2gQxsdMAAACsAiNycACDABAhAABJmDkoRJiIYLLAmZGUIAxghiLIyAcdiMCOgAAAAAAEAAAAAAQAACgAAQAACAAAAA==

>  <PUBCHEM_IUPAC_OPENEYE_NAME>  (1) 
(1R,2S,6R,7S)-4-[[(1R,2R)-2-[[4-(1,2-benzothiazol-3-yl)piperazin-1-yl]methyl]cyclohexyl]methyl]-4-azatricyclo[5.2.1.02,6]decane-3,5-dione

>  <PUBCHEM_IUPAC_CAS_NAME>  (1) 
(1R,2S,6R,7S)-4-[[(1R,2R)-2-[[4-(1,2-benzothiazol-3-yl)-1-piperazinyl]methyl]cyclohexyl]methyl]-4-azatricyclo[5.2.1.02,6]decane-3,5-dione

>  <PUBCHEM_IUPAC_NAME_MARKUP>  (1) 
(1<I>R</I>,2<I>S</I>,6<I>R</I>,7<I>S</I>)-4-[[(1<I>R</I>,2<I>R</I>)-2-[[4-(1,2-benzothiazol-3-yl)piperazin-1-yl]methyl]cyclohexyl]methyl]-4-azatricyclo[5.2.1.0<SUP>2,6</SUP>]decane-3,5-dione

>  <PUBCHEM_IUPAC_NAME>  (1) 
(1R,2S,6R,7S)-4-[[(1R,2R)-2-[[4-(1,2-benzothiazol-3-yl)piperazin-1-yl]methyl]cyclohexyl]methyl]-4-azatricyclo[5.2.1.02,6]decane-3,5-dione

>  <PUBCHEM_IUPAC_SYSTEMATIC_NAME>  (1) 
(1R,2S,6R,7S)-4-[[(1R,2R)-2-[[4-(1,2-benzothiazol-3-yl)piperazin-1-yl]methyl]cyclohexyl]methyl]-4-azatricyclo[5.2.1.02,6]decane-3,5-dione

>  <PUBCHEM_IUPAC_TRADITIONAL_NAME>  (1) 
(1R,2S,6R,7S)-4-[[(1R,2R)-2-[[4-(1,2-benzothiazol-3-yl)piperazino]methyl]cyclohexyl]methyl]-4-azatricyclo[5.2.1.02,6]decane-3,5-quinone

>  <PUBCHEM_IUPAC_INCHI>  (1) 
InChI=1S/C28H36N4O2S/c33-27-24-18-9-10-19(15-18)25(24)28(34)32(27)17-21-6-2-1-5-20(21)16-30-11-13-31(14-12-30)26-22-7-3-4-8-23(22)35-29-26/h3-4,7-8,18-21,24-25H,1-2,5-6,9-17H2/t18-,19+,20-,21-,24+,25-/m0/s1

>  <PUBCHEM_IUPAC_INCHIKEY>  (1) 
PQXKDMSYBGKCJA-CVTJIBDQSA-N

>  <PUBCHEM_XLOGP3_AA>  (1) 
5.4

>  <PUBCHEM_EXACT_MASS>  (1) 
492.25589758

>  <PUBCHEM_MOLECULAR_FORMULA>  (1) 
C28H36N4O2S

>  <PUBCHEM_MOLECULAR_WEIGHT>  (1) 
492.7

>  <PUBCHEM_SMILES>  (1) 
C1CC[C@H]([C@@H](C1)CN2CCN(CC2)C3=NSC4=CC=CC=C43)CN5C(=O)[C@H]6[C@@H]7CC[C@@H](C7)[C@H]6C5=O

>  <PUBCHEM_CONNECTIVITY_SMILES>  (1) 
C1CCC(C(C1)CN2CCN(CC2)C3=NSC4=CC=CC=C43)CN5C(=O)C6C7CCC(C7)C6C5=O

>  <PUBCHEM_CACTVS_TPSA>  (1) 
85

>  <PUBCHEM_MONOISOTOPIC_WEIGHT>  (1) 
492.25589758

>  <PUBCHEM_TOTAL_CHARGE>  (1) 
0

>  <PUBCHEM_HEAVY_ATOM_COUNT>  (1) 
35

>  <PUBCHEM_ATOM_DEF_STEREO_COUNT>  (1) 
6

>  <PUBCHEM_ATOM_UDEF_STEREO_COUNT>  (1) 
0

>  <PUBCHEM_BOND_DEF_STEREO_COUNT>  (1) 
0

>  <PUBCHEM_BOND_UDEF_STEREO_COUNT>  (1) 
0

>  <PUBCHEM_ISOTOPIC_ATOM_COUNT>  (1) 
0

>  <PUBCHEM_COMPONENT_COUNT>  (1) 
1

>  <PUBCHEM_CACTVS_TAUTO_COUNT>  (1) 
-1

>  <PUBCHEM_COORDINATE_TYPE>  (1) 
1
5
255

>  <PUBCHEM_BONDANNOTATIONS>  (1) 
1  31  8
1  7  8
10  38  6
11  39  6
18  17  6
19  23  5
29  30  8
30  31  8
30  32  8
31  33  8
32  34  8
33  35  8
34  35  8
7  29  8
8  36  5
9  37  6

$$$$
