10071196
     RDKit          2D

 65 67  0  0  0  0  0  0  0  0999 V2000
    2.8660    4.2500    0.0000 F   0  0  0  0  0  0  0  0  0  0  0  0
    4.5981    1.2500    0.0000 O   0  0  0  0  0  0  0  0  0  0  0  0
    9.7942   -1.7500    0.0000 O   0  0  0  0  0  0  0  0  0  0  0  0
    3.7321   -3.2500    0.0000 N   0  0  0  0  0  0  0  0  0  0  0  0
    3.7321   -0.2500    0.0000 N   0  0  0  0  0  0  0  0  0  0  0  0
    5.4641   -0.2500    0.0000 N   0  0  0  0  0  0  0  0  0  0  0  0
    3.7321   -1.2500    0.0000 C   0  0  0  0  0  0  0  0  0  0  0  0
    4.5981   -1.7500    0.0000 C   0  0  0  0  0  0  0  0  0  0  0  0
    2.8660   -1.7500    0.0000 C   0  0  0  0  0  0  0  0  0  0  0  0
    4.5981   -2.7500    0.0000 C   0  0  0  0  0  0  0  0  0  0  0  0
    2.8660   -2.7500    0.0000 C   0  0  0  0  0  0  0  0  0  0  0  0
    2.8660    0.2500    0.0000 C   0  0  0  0  0  0  0  0  0  0  0  0
    3.7321   -4.2500    0.0000 C   0  0  0  0  0  0  0  0  0  0  0  0
    4.5981    0.2500    0.0000 C   0  0  0  0  0  0  0  0  0  0  0  0
    2.8660    1.2500    0.0000 C   0  0  0  0  0  0  0  0  0  0  0  0
    6.3301    0.2500    0.0000 C   0  0  0  0  0  0  0  0  0  0  0  0
    2.0000    1.7500    0.0000 C   0  0  0  0  0  0  0  0  0  0  0  0
    3.7321    1.7500    0.0000 C   0  0  0  0  0  0  0  0  0  0  0  0
    7.1962   -0.2500    0.0000 C   0  0  0  0  0  0  0  0  0  0  0  0
    2.0000    2.7500    0.0000 C   0  0  0  0  0  0  0  0  0  0  0  0
    3.7321    2.7500    0.0000 C   0  0  0  0  0  0  0  0  0  0  0  0
    2.8660    3.2500    0.0000 C   0  0  0  0  0  0  0  0  0  0  0  0
    8.0622    0.2500    0.0000 C   0  0  0  0  0  0  0  0  0  0  0  0
    7.1962   -1.2500    0.0000 C   0  0  0  0  0  0  0  0  0  0  0  0
   11.5263   -1.7500    0.0000 C   0  0  0  0  0  0  0  0  0  0  0  0
    8.9282   -1.2500    0.0000 C   0  0  0  0  0  0  0  0  0  0  0  0
    8.9282   -0.2500    0.0000 C   0  0  0  0  0  0  0  0  0  0  0  0
    8.0622   -1.7500    0.0000 C   0  0  0  0  0  0  0  0  0  0  0  0
   10.6603   -1.2500    0.0000 C   0  0  0  0  0  0  0  0  0  0  0  0
   12.3923   -1.2500    0.0000 C   0  0  0  0  0  0  0  0  0  0  0  0
   11.5263   -2.7500    0.0000 C   0  0  0  0  0  0  0  0  0  0  0  0
    4.2690   -0.9400    0.0000 H   0  0  0  0  0  0  0  0  0  0  0  0
    5.2087   -1.8577    0.0000 H   0  0  0  0  0  0  0  0  0  0  0  0
    4.8101   -1.1674    0.0000 H   0  0  0  0  0  0  0  0  0  0  0  0
    2.6540   -1.1674    0.0000 H   0  0  0  0  0  0  0  0  0  0  0  0
    2.2554   -1.8577    0.0000 H   0  0  0  0  0  0  0  0  0  0  0  0
    4.8101   -3.3326    0.0000 H   0  0  0  0  0  0  0  0  0  0  0  0
    5.2087   -2.6423    0.0000 H   0  0  0  0  0  0  0  0  0  0  0  0
    2.2554   -2.6423    0.0000 H   0  0  0  0  0  0  0  0  0  0  0  0
    2.6540   -3.3326    0.0000 H   0  0  0  0  0  0  0  0  0  0  0  0
    2.2554    0.3577    0.0000 H   0  0  0  0  0  0  0  0  0  0  0  0
    2.6540   -0.3326    0.0000 H   0  0  0  0  0  0  0  0  0  0  0  0
    3.1121   -4.2500    0.0000 H   0  0  0  0  0  0  0  0  0  0  0  0
    3.7321   -4.8700    0.0000 H   0  0  0  0  0  0  0  0  0  0  0  0
    4.3521   -4.2500    0.0000 H   0  0  0  0  0  0  0  0  0  0  0  0
    5.4641   -0.8700    0.0000 H   0  0  0  0  0  0  0  0  0  0  0  0
    6.7287    0.7249    0.0000 H   0  0  0  0  0  0  0  0  0  0  0  0
    5.9316    0.7249    0.0000 H   0  0  0  0  0  0  0  0  0  0  0  0
    1.4631    1.4400    0.0000 H   0  0  0  0  0  0  0  0  0  0  0  0
    4.2690    1.4400    0.0000 H   0  0  0  0  0  0  0  0  0  0  0  0
    1.4631    3.0600    0.0000 H   0  0  0  0  0  0  0  0  0  0  0  0
    4.2690    3.0600    0.0000 H   0  0  0  0  0  0  0  0  0  0  0  0
    8.0622    0.8700    0.0000 H   0  0  0  0  0  0  0  0  0  0  0  0
    6.6592   -1.5600    0.0000 H   0  0  0  0  0  0  0  0  0  0  0  0
   12.0632   -2.0600    0.0000 H   0  0  0  0  0  0  0  0  0  0  0  0
    9.4651    0.0600    0.0000 H   0  0  0  0  0  0  0  0  0  0  0  0
    8.0622   -2.3700    0.0000 H   0  0  0  0  0  0  0  0  0  0  0  0
   11.0588   -0.7751    0.0000 H   0  0  0  0  0  0  0  0  0  0  0  0
   10.2617   -0.7751    0.0000 H   0  0  0  0  0  0  0  0  0  0  0  0
   12.7023   -1.7869    0.0000 H   0  0  0  0  0  0  0  0  0  0  0  0
   12.9292   -0.9400    0.0000 H   0  0  0  0  0  0  0  0  0  0  0  0
   12.0823   -0.7131    0.0000 H   0  0  0  0  0  0  0  0  0  0  0  0
   10.9063   -2.7500    0.0000 H   0  0  0  0  0  0  0  0  0  0  0  0
   11.5263   -3.3700    0.0000 H   0  0  0  0  0  0  0  0  0  0  0  0
   12.1463   -2.7500    0.0000 H   0  0  0  0  0  0  0  0  0  0  0  0
  1 22  1  0
  2 14  2  0
  3 26  1  0
  3 29  1  0
  4 10  1  0
  4 11  1  0
  4 13  1  0
  5  7  1  0
  5 12  1  0
  5 14  1  0
  6 14  1  0
  6 16  1  0
  6 46  1  0
  7  8  1  0
  7  9  1  0
  7 32  1  0
  8 10  1  0
  8 33  1  0
  8 34  1  0
  9 11  1  0
  9 35  1  0
  9 36  1  0
 10 37  1  0
 10 38  1  0
 11 39  1  0
 11 40  1  0
 12 15  1  0
 12 41  1  0
 12 42  1  0
 13 43  1  0
 13 44  1  0
 13 45  1  0
 15 17  1  0
 15 18  2  0
 16 19  1  0
 16 47  1  0
 16 48  1  0
 17 20  2  0
 17 49  1  0
 18 21  1  0
 18 50  1  0
 19 23  1  0
 19 24  2  0
 20 22  1  0
 20 51  1  0
 21 22  2  0
 21 52  1  0
 23 27  2  0
 23 53  1  0
 24 28  1  0
 24 54  1  0
 25 29  1  0
 25 30  1  0
 25 31  1  0
 25 55  1  0
 26 27  1  0
 26 28  2  0
 27 56  1  0
 28 57  1  0
 29 58  1  0
 29 59  1  0
 30 60  1  0
 30 61  1  0
 30 62  1  0
 31 63  1  0
 31 64  1  0
 31 65  1  0
M  END
>  <PUBCHEM_COMPOUND_CID>  (1) 
10071196

>  <PUBCHEM_COMPOUND_CANONICALIZED>  (1) 
1

>  <PUBCHEM_CACTVS_COMPLEXITY>  (1) 
523

>  <PUBCHEM_CACTVS_HBOND_ACCEPTOR>  (1) 
4

>  <PUBCHEM_CACTVS_HBOND_DONOR>  (1) 
1

>  <PUBCHEM_CACTVS_ROTATABLE_BOND>  (1) 
8

>  <PUBCHEM_CACTVS_SUBSKEYS>  (1) 
AAADcfB7MQAAAAAAAAAAAAAAAAAAAAAAAAA8YIAAAAAAAAABQAAAHwAQAAAADSzhmA4zBoPABACIAiBCEACCCAAgIAAIiIAODIiMJiKE8RuGOCjsxhOIqAeQ0AIOIAAAAAAAAABAAAAAAAAAAAAAAAAAAA==

>  <PUBCHEM_IUPAC_OPENEYE_NAME>  (1) 
1-[(4-fluorophenyl)methyl]-3-[(4-isobutoxyphenyl)methyl]-1-(1-methyl-4-piperidyl)urea

>  <PUBCHEM_IUPAC_CAS_NAME>  (1) 
1-[(4-fluorophenyl)methyl]-1-(1-methyl-4-piperidinyl)-3-[[4-(2-methylpropoxy)phenyl]methyl]urea

>  <PUBCHEM_IUPAC_NAME_MARKUP>  (1) 
1-[(4-fluorophenyl)methyl]-1-(1-methylpiperidin-4-yl)-3-[[4-(2-methylpropoxy)phenyl]methyl]urea

>  <PUBCHEM_IUPAC_NAME>  (1) 
1-[(4-fluorophenyl)methyl]-1-(1-methylpiperidin-4-yl)-3-[[4-(2-methylpropoxy)phenyl]methyl]urea

>  <PUBCHEM_IUPAC_SYSTEMATIC_NAME>  (1) 
1-[(4-fluorophenyl)methyl]-1-(1-methylpiperidin-4-yl)-3-[[4-(2-methylpropoxy)phenyl]methyl]urea

>  <PUBCHEM_IUPAC_TRADITIONAL_NAME>  (1) 
1-(4-fluorobenzyl)-3-(4-isobutoxybenzyl)-1-(1-methyl-4-piperidyl)urea

>  <PUBCHEM_IUPAC_INCHI>  (1) 
InChI=1S/C25H34FN3O2/c1-19(2)18-31-24-10-6-20(7-11-24)16-27-25(30)29(23-12-14-28(3)15-13-23)17-21-4-8-22(26)9-5-21/h4-11,19,23H,12-18H2,1-3H3,(H,27,30)

>  <PUBCHEM_IUPAC_INCHIKEY>  (1) 
RKEWSXXUOLRFBX-UHFFFAOYSA-N

>  <PUBCHEM_XLOGP3_AA>  (1) 
4.5

>  <PUBCHEM_EXACT_MASS>  (1) 
427.26350550

>  <PUBCHEM_MOLECULAR_FORMULA>  (1) 
C25H34FN3O2

>  <PUBCHEM_MOLECULAR_WEIGHT>  (1) 
427.6

>  <PUBCHEM_SMILES>  (1) 
CC(C)COC1=CC=C(C=C1)CNC(=O)N(CC2=CC=C(C=C2)F)C3CCN(CC3)C

>  <PUBCHEM_CONNECTIVITY_SMILES>  (1) 
CC(C)COC1=CC=C(C=C1)CNC(=O)N(CC2=CC=C(C=C2)F)C3CCN(CC3)C

>  <PUBCHEM_CACTVS_TPSA>  (1) 
44.8

>  <PUBCHEM_MONOISOTOPIC_WEIGHT>  (1) 
427.26350550

>  <PUBCHEM_TOTAL_CHARGE>  (1) 
0

>  <PUBCHEM_HEAVY_ATOM_COUNT>  (1) 
31

>  <PUBCHEM_ATOM_DEF_STEREO_COUNT>  (1) 
0

>  <PUBCHEM_ATOM_UDEF_STEREO_COUNT>  (1) 
0

>  <PUBCHEM_BOND_DEF_STEREO_COUNT>  (1) 
0

>  <PUBCHEM_BOND_UDEF_STEREO_COUNT>  (1) 
0

>  <PUBCHEM_ISOTOPIC_ATOM_COUNT>  (1) 
0

>  <PUBCHEM_COMPONENT_COUNT>  (1) 
1

>  <PUBCHEM_CACTVS_TAUTO_COUNT>  (1) 
-1

>  <PUBCHEM_COORDINATE_TYPE>  (1) 
1
5
255

>  <PUBCHEM_BONDANNOTATIONS>  (1) 
15  17  8
15  18  8
17  20  8
18  21  8
19  23  8
19  24  8
20  22  8
21  22  8
23  27  8
24  28  8
26  27  8
26  28  8

$$$$
