71353
  -OEChem-06102616043D

 46 48  0     1  0  0  0  0  0999 V2000
   -0.7959   -0.3059    1.1429 O   0  0  0  0  0  0  0  0  0  0  0  0
    2.1711    1.8378   -1.0717 N   0  0  0  0  0  0  0  0  0  0  0  0
    2.4977    1.3809    0.2850 C   0  0  1  0  0  0  0  0  0  0  0  0
    1.1881    1.0654    1.0326 C   0  0  0  0  0  0  0  0  0  0  0  0
    3.4601    0.2089    0.2366 C   0  0  0  0  0  0  0  0  0  0  0  0
    0.4084   -0.0926    0.4126 C   0  0  0  0  0  0  0  0  0  0  0  0
    3.3831    2.2617   -1.7675 C   0  0  0  0  0  0  0  0  0  0  0  0
    1.1994    2.9265   -1.0180 C   0  0  0  0  0  0  0  0  0  0  0  0
    4.3883    0.0595    1.2499 C   0  0  0  0  0  0  0  0  0  0  0  0
    3.3844   -0.6794   -0.8197 C   0  0  0  0  0  0  0  0  0  0  0  0
   -1.8571   -0.8149    0.4496 C   0  0  0  0  0  0  0  0  0  0  0  0
   -3.0684   -0.1115    0.3472 C   0  0  0  0  0  0  0  0  0  0  0  0
    5.2734   -1.0178    1.2052 C   0  0  0  0  0  0  0  0  0  0  0  0
    4.2693   -1.7566   -0.8643 C   0  0  0  0  0  0  0  0  0  0  0  0
   -4.1397   -0.6809   -0.3814 C   0  0  0  0  0  0  0  0  0  0  0  0
    5.2138   -1.9257    0.1481 C   0  0  0  0  0  0  0  0  0  0  0  0
   -1.7044   -2.0619   -0.1574 C   0  0  0  0  0  0  0  0  0  0  0  0
   -3.2399    1.1445    0.9519 C   0  0  0  0  0  0  0  0  0  0  0  0
   -3.9683   -1.9367   -0.9864 C   0  0  0  0  0  0  0  0  0  0  0  0
   -2.7578   -2.6215   -0.8743 C   0  0  0  0  0  0  0  0  0  0  0  0
   -5.3510    0.0224   -0.4841 C   0  0  0  0  0  0  0  0  0  0  0  0
   -4.4504    1.8290    0.8399 C   0  0  0  0  0  0  0  0  0  0  0  0
   -5.5040    1.2691    0.1233 C   0  0  0  0  0  0  0  0  0  0  0  0
    2.9908    2.2026    0.8260 H   0  0  0  0  0  0  0  0  0  0  0  0
    0.5427    1.9385    1.1791 H   0  0  0  0  0  0  0  0  0  0  0  0
    1.4412    0.7696    2.0616 H   0  0  0  0  0  0  0  0  0  0  0  0
    0.1786    0.1148   -0.6393 H   0  0  0  0  0  0  0  0  0  0  0  0
    0.9863   -1.0201    0.4693 H   0  0  0  0  0  0  0  0  0  0  0  0
    3.8893    3.0814   -1.2426 H   0  0  0  0  0  0  0  0  0  0  0  0
    3.1271    2.6266   -2.7700 H   0  0  0  0  0  0  0  0  0  0  0  0
    4.1165    1.4705   -1.9404 H   0  0  0  0  0  0  0  0  0  0  0  0
    0.1891    2.5778   -0.7828 H   0  0  0  0  0  0  0  0  0  0  0  0
    1.0972    3.3918   -2.0067 H   0  0  0  0  0  0  0  0  0  0  0  0
    1.4879    3.7194   -0.3178 H   0  0  0  0  0  0  0  0  0  0  0  0
    4.4403    0.7600    2.0779 H   0  0  0  0  0  0  0  0  0  0  0  0
    2.6467   -0.5959   -1.6120 H   0  0  0  0  0  0  0  0  0  0  0  0
    6.0081   -1.1501    1.9940 H   0  0  0  0  0  0  0  0  0  0  0  0
    4.2193   -2.4675   -1.6840 H   0  0  0  0  0  0  0  0  0  0  0  0
    5.9018   -2.7654    0.1140 H   0  0  0  0  0  0  0  0  0  0  0  0
   -0.7729   -2.6150   -0.0722 H   0  0  0  0  0  0  0  0  0  0  0  0
   -2.4365    1.6106    1.5181 H   0  0  0  0  0  0  0  0  0  0  0  0
   -4.7784   -2.3936   -1.5511 H   0  0  0  0  0  0  0  0  0  0  0  0
   -2.6391   -3.5932   -1.3450 H   0  0  0  0  0  0  0  0  0  0  0  0
   -6.1879   -0.3961   -1.0395 H   0  0  0  0  0  0  0  0  0  0  0  0
   -4.5702    2.7998    1.3121 H   0  0  0  0  0  0  0  0  0  0  0  0
   -6.4461    1.8026    0.0364 H   0  0  0  0  0  0  0  0  0  0  0  0
  1  6  1  0  0  0  0
  1 11  1  0  0  0  0
  2  3  1  0  0  0  0
  2  7  1  0  0  0  0
  2  8  1  0  0  0  0
  3  4  1  0  0  0  0
  3  5  1  0  0  0  0
  3 24  1  0  0  0  0
  4  6  1  0  0  0  0
  4 25  1  0  0  0  0
  4 26  1  0  0  0  0
  5  9  2  0  0  0  0
  5 10  1  0  0  0  0
  6 27  1  0  0  0  0
  6 28  1  0  0  0  0
  7 29  1  0  0  0  0
  7 30  1  0  0  0  0
  7 31  1  0  0  0  0
  8 32  1  0  0  0  0
  8 33  1  0  0  0  0
  8 34  1  0  0  0  0
  9 13  1  0  0  0  0
  9 35  1  0  0  0  0
 10 14  2  0  0  0  0
 10 36  1  0  0  0  0
 11 12  1  0  0  0  0
 11 17  2  0  0  0  0
 12 15  1  0  0  0  0
 12 18  2  0  0  0  0
 13 16  2  0  0  0  0
 13 37  1  0  0  0  0
 14 16  1  0  0  0  0
 14 38  1  0  0  0  0
 15 19  1  0  0  0  0
 15 21  2  0  0  0  0
 16 39  1  0  0  0  0
 17 20  1  0  0  0  0
 17 40  1  0  0  0  0
 18 22  1  0  0  0  0
 18 41  1  0  0  0  0
 19 20  2  0  0  0  0
 19 42  1  0  0  0  0
 20 43  1  0  0  0  0
 21 23  1  0  0  0  0
 21 44  1  0  0  0  0
 22 23  2  0  0  0  0
 22 45  1  0  0  0  0
 23 46  1  0  0  0  0
M  END
> <PUBCHEM_COMPOUND_CID>
71353

> <PUBCHEM_CONFORMER_RMSD>
0.8

> <PUBCHEM_CONFORMER_DIVERSEORDER>
3
66
19
77
56
87
61
38
41
16
80
42
50
49
22
70
72
30
52
62
75
74
69
83
86
46
40
54
45
81
47
68
85
20
2
27
35
73
44
59
17
12
32
24
26
79
82
33
55
78
34
71
10
53
57
31
60
65
51
76
13
58
5
23
63
43
29
18
11
64
25
48
1
28
8
6
9
37
21
67
36
39
4
7
15
14
84

> <PUBCHEM_MMFF94_PARTIAL_CHARGES>
32
1 -0.36
10 -0.15
11 0.08
13 -0.15
14 -0.15
16 -0.15
17 -0.15
18 -0.15
19 -0.15
2 -0.81
20 -0.15
21 -0.15
22 -0.15
23 -0.15
3 0.41
35 0.15
36 0.15
37 0.15
38 0.15
39 0.15
40 0.15
41 0.15
42 0.15
43 0.15
44 0.15
45 0.15
46 0.15
5 -0.14
6 0.28
7 0.27
8 0.27
9 -0.15

> <PUBCHEM_EFFECTIVE_ROTOR_COUNT>
6

> <PUBCHEM_PHARMACOPHORE_FEATURES>
5
1 1 acceptor
1 2 cation
6 11 12 15 17 19 20 rings
6 12 15 18 21 22 23 rings
6 5 9 10 13 14 16 rings

> <PUBCHEM_HEAVY_ATOM_COUNT>
23

> <PUBCHEM_ATOM_DEF_STEREO_COUNT>
1

> <PUBCHEM_ATOM_UDEF_STEREO_COUNT>
0

> <PUBCHEM_BOND_DEF_STEREO_COUNT>
0

> <PUBCHEM_BOND_UDEF_STEREO_COUNT>
0

> <PUBCHEM_ISOTOPIC_ATOM_COUNT>
0

> <PUBCHEM_COMPONENT_COUNT>
1

> <PUBCHEM_CACTVS_TAUTO_COUNT>
1

> <PUBCHEM_CONFORMER_ID>
000116B900000003

> <PUBCHEM_MMFF94_ENERGY>
85.156

> <PUBCHEM_FEATURE_SELFOVERLAP>
25.399

> <PUBCHEM_SHAPE_FINGERPRINT>
10366900 7 12685091527499810825
11405975 8 18335985354149054675
116883 192 18335141947611663436
12107183 9 18338518512896199377
12616971 3 18334297582684245545
12633257 1 18334295361769364078
13177829 73 18271808956796606513
13224815 77 11743851265051373889
13583140 156 16988268880623340826
13692114 37 17183037173495810820
14251751 18 17917986217720050203
14347332 77 18129092493804264695
14787075 74 9150872976034610011
15183329 4 18411982433993223335
15420108 30 17476367097440646024
15788980 27 18413952788742092275
17349148 13 17775011171514429867
17492 89 18266179628686967207
17818456 19 18271248226808598704
17844677 252 18188496877605947795
1813 80 18040715836306199692
18186145 218 16805601520537560848
18335252 114 18261944181902168221
19141452 34 18341891870399399050
20511986 3 18271509975480241786
20626108 58 18339915022024216178
20715895 44 18200877258259484909
21315764 371 9871462153545267616
21781051 124 18339933718539413443
21859007 373 18118383086745123325
22393880 68 18056210295761830492
23402539 116 18059566975986147417
23559900 14 17846208982046016186
2838139 119 17532069645953673269
3004659 81 18412547604845656686
312423 11 18189340224214250291
338550 245 18413670231433954294
340366 18 18408044021891708039
404807 14 16478836259947301303
4214541 1 18273211993451791939
44062 13 18201720678088713783
5081480 168 17022629675769613094
5104073 3 18340771536917762035
5283173 99 17774719753799368289
543358 83 18261116300731911572
5486654 2 9655278346282311017
559249 180 18342734079300895499
57724786 102 17241055391225959421
633830 44 17749106733488292611
6442390 28 9439394740570277568
67856867 119 18269268144185852544
6913067 236 13470680417307191370
7399639 24 17179699562983362152
960060 61 18260838107215729726
9971528 1 18408601466208914512
9981440 41 17327173754719301304

> <PUBCHEM_SHAPE_MULTIPOLES>
462.48
13.34
2.83
1.32
1.28
0.3
0.15
-2.25
-0.54
-0.23
1.16
-0.95
0.4
-1.88

> <PUBCHEM_SHAPE_SELFOVERLAP>
996.399

> <PUBCHEM_SHAPE_VOLUME>
255.9

> <PUBCHEM_COORDINATE_TYPE>
2
5
10

$$$$
