19371515
     RDKit          2D

 44 47  0  0  0  0  0  0  0  0999 V2000
    2.0000    2.8888    0.0000 O   0  0  0  0  0  0  0  0  0  0  0  0
    5.6280   -2.4475    0.0000 N   0  0  0  0  0  0  0  0  0  0  0  0
    4.5045    1.9613    0.0000 N   0  0  0  0  0  0  0  0  0  0  0  0
    3.8724    0.4788    0.0000 N   0  0  0  0  0  0  0  0  0  0  0  0
    5.6280   -0.4475    0.0000 C   0  0  0  0  0  0  0  0  0  0  0  0
    4.7620   -0.9475    0.0000 C   0  0  0  0  0  0  0  0  0  0  0  0
    6.4940   -0.9475    0.0000 C   0  0  0  0  0  0  0  0  0  0  0  0
    5.6280    0.5525    0.0000 C   0  0  0  0  0  0  0  0  0  0  0  0
    4.7620   -1.9475    0.0000 C   0  0  0  0  0  0  0  0  0  0  0  0
    6.4940   -1.9475    0.0000 C   0  0  0  0  0  0  0  0  0  0  0  0
    6.5290    0.9864    0.0000 C   0  0  0  0  0  0  0  0  0  0  0  0
    4.7271    0.9864    0.0000 C   0  0  0  0  0  0  0  0  0  0  0  0
    5.1280    2.7432    0.0000 C   0  0  0  0  0  0  0  0  0  0  0  0
    6.1280    2.7432    0.0000 C   0  0  0  0  0  0  0  0  0  0  0  0
    6.7515    1.9613    0.0000 C   0  0  0  0  0  0  0  0  0  0  0  0
    5.6280   -3.4475    0.0000 C   0  0  0  0  0  0  0  0  0  0  0  0
    3.5142    2.0479    0.0000 C   0  0  0  0  0  0  0  0  0  0  0  0
    7.2815    0.2662    0.0000 C   0  0  0  0  0  0  0  0  0  0  0  0
    7.7420    2.2837    0.0000 C   0  0  0  0  0  0  0  0  0  0  0  0
    3.1243    1.1335    0.0000 C   0  0  0  0  0  0  0  0  0  0  0  0
    8.2792    0.5656    0.0000 C   0  0  0  0  0  0  0  0  0  0  0  0
    8.5110    1.5811    0.0000 C   0  0  0  0  0  0  0  0  0  0  0  0
    2.9999    2.9055    0.0000 C   0  0  0  0  0  0  0  0  0  0  0  0
    4.5499   -0.3649    0.0000 H   0  0  0  0  0  0  0  0  0  0  0  0
    4.1514   -1.0551    0.0000 H   0  0  0  0  0  0  0  0  0  0  0  0
    7.1046   -1.0552    0.0000 H   0  0  0  0  0  0  0  0  0  0  0  0
    6.7061   -0.3649    0.0000 H   0  0  0  0  0  0  0  0  0  0  0  0
    4.1514   -1.8398    0.0000 H   0  0  0  0  0  0  0  0  0  0  0  0
    4.5499   -2.5301    0.0000 H   0  0  0  0  0  0  0  0  0  0  0  0
    6.7061   -2.5301    0.0000 H   0  0  0  0  0  0  0  0  0  0  0  0
    7.1046   -1.8398    0.0000 H   0  0  0  0  0  0  0  0  0  0  0  0
    5.2660    3.3476    0.0000 H   0  0  0  0  0  0  0  0  0  0  0  0
    4.5694    3.0122    0.0000 H   0  0  0  0  0  0  0  0  0  0  0  0
    6.6866    3.0122    0.0000 H   0  0  0  0  0  0  0  0  0  0  0  0
    5.9901    3.3476    0.0000 H   0  0  0  0  0  0  0  0  0  0  0  0
    5.0080   -3.4475    0.0000 H   0  0  0  0  0  0  0  0  0  0  0  0
    5.6280   -4.0675    0.0000 H   0  0  0  0  0  0  0  0  0  0  0  0
    6.2480   -3.4475    0.0000 H   0  0  0  0  0  0  0  0  0  0  0  0
    7.1366   -0.3366    0.0000 H   0  0  0  0  0  0  0  0  0  0  0  0
    7.8730    2.8897    0.0000 H   0  0  0  0  0  0  0  0  0  0  0  0
    2.5199    0.9955    0.0000 H   0  0  0  0  0  0  0  0  0  0  0  0
    8.7321    0.1421    0.0000 H   0  0  0  0  0  0  0  0  0  0  0  0
    9.1028    1.7661    0.0000 H   0  0  0  0  0  0  0  0  0  0  0  0
    3.3009    3.4475    0.0000 H   0  0  0  0  0  0  0  0  0  0  0  0
  1 23  2  0
  2  9  1  0
  2 10  1  0
  2 16  1  0
  3 12  1  0
  3 13  1  0
  3 17  1  0
  4 12  2  0
  4 20  1  0
  5  6  1  0
  5  7  1  0
  5  8  2  0
  6  9  1  0
  6 24  1  0
  6 25  1  0
  7 10  1  0
  7 26  1  0
  7 27  1  0
  8 11  1  0
  8 12  1  0
  9 28  1  0
  9 29  1  0
 10 30  1  0
 10 31  1  0
 11 15  1  0
 11 18  2  0
 13 14  1  0
 13 32  1  0
 13 33  1  0
 14 15  1  0
 14 34  1  0
 14 35  1  0
 15 19  2  0
 16 36  1  0
 16 37  1  0
 16 38  1  0
 17 20  2  0
 17 23  1  0
 18 21  1  0
 18 39  1  0
 19 22  1  0
 19 40  1  0
 20 41  1  0
 21 22  2  0
 21 42  1  0
 22 43  1  0
 23 44  1  0
M  END
>  <PUBCHEM_COMPOUND_CID>  (1) 
19371515

>  <PUBCHEM_COMPOUND_CANONICALIZED>  (1) 
1

>  <PUBCHEM_CACTVS_COMPLEXITY>  (1) 
479

>  <PUBCHEM_CACTVS_HBOND_ACCEPTOR>  (1) 
3

>  <PUBCHEM_CACTVS_HBOND_DONOR>  (1) 
0

>  <PUBCHEM_CACTVS_ROTATABLE_BOND>  (1) 
1

>  <PUBCHEM_CACTVS_SUBSKEYS>  (1) 
AAADceB7IAAAAAAAAAAAAAAAAAAAAWAAAAA8QAAABYAAAACxwAAAHgAAAAAADAjhnwY/kJcMEACoAz535ACCgC03EqAJ2AG4cNiIaCrAmTGUIIAogALIiOcQgIAOgAAAAAAQAAAAAAAAACAAAAAAAAAAAA==

>  <PUBCHEM_IUPAC_OPENEYE_NAME>  (1) 
11-(1-methyl-4-piperidylidene)-5,6-dihydroimidazo[2,1-b][3]benzazepine-3-carbaldehyde

>  <PUBCHEM_IUPAC_CAS_NAME>  (1) 
11-(1-methyl-4-piperidinylidene)-5,6-dihydroimidazo[2,1-b][3]benzazepine-3-carboxaldehyde

>  <PUBCHEM_IUPAC_NAME_MARKUP>  (1) 
11-(1-methylpiperidin-4-ylidene)-5,6-dihydroimidazo[2,1-b][3]benzazepine-3-carbaldehyde

>  <PUBCHEM_IUPAC_NAME>  (1) 
11-(1-methylpiperidin-4-ylidene)-5,6-dihydroimidazo[2,1-b][3]benzazepine-3-carbaldehyde

>  <PUBCHEM_IUPAC_SYSTEMATIC_NAME>  (1) 
11-(1-methylpiperidin-4-ylidene)-5,6-dihydroimidazo[2,1-b][3]benzazepine-3-carbaldehyde

>  <PUBCHEM_IUPAC_TRADITIONAL_NAME>  (1) 
11-(1-methyl-4-piperidylidene)-5,6-dihydroimidazo[2,1-b][3]benzazepine-3-carbaldehyde

>  <PUBCHEM_IUPAC_INCHI>  (1) 
InChI=1S/C19H21N3O/c1-21-9-6-15(7-10-21)18-17-5-3-2-4-14(17)8-11-22-16(13-23)12-20-19(18)22/h2-5,12-13H,6-11H2,1H3

>  <PUBCHEM_IUPAC_INCHIKEY>  (1) 
MWTBKTRZPHJQLH-UHFFFAOYSA-N

>  <PUBCHEM_XLOGP3_AA>  (1) 
1.7

>  <PUBCHEM_EXACT_MASS>  (1) 
307.168462302

>  <PUBCHEM_MOLECULAR_FORMULA>  (1) 
C19H21N3O

>  <PUBCHEM_MOLECULAR_WEIGHT>  (1) 
307.4

>  <PUBCHEM_SMILES>  (1) 
CN1CCC(=C2C3=CC=CC=C3CCN4C2=NC=C4C=O)CC1

>  <PUBCHEM_CONNECTIVITY_SMILES>  (1) 
CN1CCC(=C2C3=CC=CC=C3CCN4C2=NC=C4C=O)CC1

>  <PUBCHEM_CACTVS_TPSA>  (1) 
38.1

>  <PUBCHEM_MONOISOTOPIC_WEIGHT>  (1) 
307.168462302

>  <PUBCHEM_TOTAL_CHARGE>  (1) 
0

>  <PUBCHEM_HEAVY_ATOM_COUNT>  (1) 
23

>  <PUBCHEM_ATOM_DEF_STEREO_COUNT>  (1) 
0

>  <PUBCHEM_ATOM_UDEF_STEREO_COUNT>  (1) 
0

>  <PUBCHEM_BOND_DEF_STEREO_COUNT>  (1) 
0

>  <PUBCHEM_BOND_UDEF_STEREO_COUNT>  (1) 
0

>  <PUBCHEM_ISOTOPIC_ATOM_COUNT>  (1) 
0

>  <PUBCHEM_COMPONENT_COUNT>  (1) 
1

>  <PUBCHEM_CACTVS_TAUTO_COUNT>  (1) 
-1

>  <PUBCHEM_COORDINATE_TYPE>  (1) 
1
5
255

>  <PUBCHEM_BONDANNOTATIONS>  (1) 
11  15  8
11  18  8
15  19  8
17  20  8
18  21  8
19  22  8
21  22  8
3  12  8
3  17  8
4  12  8
4  20  8

$$$$
