6834
     RDKit          2D

 38 39  0  0  1  0  0  0  0  0999 V2000
    4.5981   -3.5000    0.0000 Br  0  0  0  0  0  0  0  0  0  0  0  0
    2.8660    2.5000    0.0000 N   0  0  0  0  0  0  0  0  0  0  0  0
    6.3301    0.5000    0.0000 N   0  0  0  0  0  0  0  0  0  0  0  0
    4.5981    0.5000    0.0000 C   0  0  0  0  0  0  0  0  0  0  0  0
    3.7321    1.0000    0.0000 C   0  0  0  0  0  0  0  0  0  0  0  0
    3.7321    2.0000    0.0000 C   0  0  0  0  0  0  0  0  0  0  0  0
    4.5981   -0.5000    0.0000 C   0  0  0  0  0  0  0  0  0  0  0  0
    5.4641    1.0000    0.0000 C   0  0  0  0  0  0  0  0  0  0  0  0
    3.7321   -1.0000    0.0000 C   0  0  0  0  0  0  0  0  0  0  0  0
    5.4641   -1.0000    0.0000 C   0  0  0  0  0  0  0  0  0  0  0  0
    5.4641    2.0000    0.0000 C   0  0  0  0  0  0  0  0  0  0  0  0
    2.8660    3.5000    0.0000 C   0  0  0  0  0  0  0  0  0  0  0  0
    2.0000    2.0000    0.0000 C   0  0  0  0  0  0  0  0  0  0  0  0
    3.7321   -2.0000    0.0000 C   0  0  0  0  0  0  0  0  0  0  0  0
    5.4641   -2.0000    0.0000 C   0  0  0  0  0  0  0  0  0  0  0  0
    6.3301    2.5000    0.0000 C   0  0  0  0  0  0  0  0  0  0  0  0
    4.5981   -2.5000    0.0000 C   0  0  0  0  0  0  0  0  0  0  0  0
    7.1962    1.0000    0.0000 C   0  0  0  0  0  0  0  0  0  0  0  0
    7.1962    2.0000    0.0000 C   0  0  0  0  0  0  0  0  0  0  0  0
    4.5981    1.1200    0.0000 H   0  0  0  0  0  0  0  0  0  0  0  0
    3.1215    1.1077    0.0000 H   0  0  0  0  0  0  0  0  0  0  0  0
    3.5200    0.4174    0.0000 H   0  0  0  0  0  0  0  0  0  0  0  0
    4.3426    1.8923    0.0000 H   0  0  0  0  0  0  0  0  0  0  0  0
    3.9441    2.5826    0.0000 H   0  0  0  0  0  0  0  0  0  0  0  0
    3.1951   -0.6900    0.0000 H   0  0  0  0  0  0  0  0  0  0  0  0
    6.0010   -0.6900    0.0000 H   0  0  0  0  0  0  0  0  0  0  0  0
    4.9272    2.3100    0.0000 H   0  0  0  0  0  0  0  0  0  0  0  0
    3.4860    3.5000    0.0000 H   0  0  0  0  0  0  0  0  0  0  0  0
    2.8660    4.1200    0.0000 H   0  0  0  0  0  0  0  0  0  0  0  0
    2.2460    3.5000    0.0000 H   0  0  0  0  0  0  0  0  0  0  0  0
    1.6900    2.5369    0.0000 H   0  0  0  0  0  0  0  0  0  0  0  0
    1.4631    1.6900    0.0000 H   0  0  0  0  0  0  0  0  0  0  0  0
    2.3100    1.4631    0.0000 H   0  0  0  0  0  0  0  0  0  0  0  0
    3.1951   -2.3100    0.0000 H   0  0  0  0  0  0  0  0  0  0  0  0
    6.0010   -2.3100    0.0000 H   0  0  0  0  0  0  0  0  0  0  0  0
    6.3301    3.1200    0.0000 H   0  0  0  0  0  0  0  0  0  0  0  0
    7.7331    0.6900    0.0000 H   0  0  0  0  0  0  0  0  0  0  0  0
    7.7331    2.3100    0.0000 H   0  0  0  0  0  0  0  0  0  0  0  0
  1 17  1  0
  2  6  1  0
  2 12  1  0
  2 13  1  0
  3  8  1  0
  3 18  2  0
  4  5  1  0
  4  7  1  0
  4  8  1  0
  4 20  1  0
  5  6  1  0
  5 21  1  0
  5 22  1  0
  6 23  1  0
  6 24  1  0
  7  9  1  0
  7 10  2  0
  8 11  2  0
  9 14  2  0
  9 25  1  0
 10 15  1  0
 10 26  1  0
 11 16  1  0
 11 27  1  0
 12 28  1  0
 12 29  1  0
 12 30  1  0
 13 31  1  0
 13 32  1  0
 13 33  1  0
 14 17  1  0
 14 34  1  0
 15 17  2  0
 15 35  1  0
 16 19  2  0
 16 36  1  0
 18 19  1  0
 18 37  1  0
 19 38  1  0
M  END
>  <PUBCHEM_COMPOUND_CID>  (1) 
6834

>  <PUBCHEM_COMPOUND_CANONICALIZED>  (1) 
1

>  <PUBCHEM_CACTVS_COMPLEXITY>  (1) 
249

>  <PUBCHEM_CACTVS_HBOND_ACCEPTOR>  (1) 
2

>  <PUBCHEM_CACTVS_HBOND_DONOR>  (1) 
0

>  <PUBCHEM_CACTVS_ROTATABLE_BOND>  (1) 
5

>  <PUBCHEM_CACTVS_SUBSKEYS>  (1) 
AAADceB7AAAAEAAAAAAAAAAAAAAAAAAAAAA8QAAAAAAAAAABwAAAHABAAAABrQjBHgQ+gJMIEACgAzRnRACCgCAxAiQI2CA4ZLgIIOLAkZGEIAhggADIyhcQgMAOggAAAAAAAAAEAAAAAAAAAAAAAAAAAA==

>  <PUBCHEM_IUPAC_OPENEYE_NAME>  (1) 
3-(4-bromophenyl)-N,N-dimethyl-3-(2-pyridyl)propan-1-amine

>  <PUBCHEM_IUPAC_CAS_NAME>  (1) 
3-(4-bromophenyl)-N,N-dimethyl-3-(2-pyridinyl)-1-propanamine

>  <PUBCHEM_IUPAC_NAME_MARKUP>  (1) 
3-(4-bromophenyl)-<I>N</I>,<I>N</I>-dimethyl-3-pyridin-2-ylpropan-1-amine

>  <PUBCHEM_IUPAC_NAME>  (1) 
3-(4-bromophenyl)-N,N-dimethyl-3-pyridin-2-ylpropan-1-amine

>  <PUBCHEM_IUPAC_SYSTEMATIC_NAME>  (1) 
3-(4-bromophenyl)-N,N-dimethyl-3-pyridin-2-yl-propan-1-amine

>  <PUBCHEM_IUPAC_TRADITIONAL_NAME>  (1) 
[3-(4-bromophenyl)-3-(2-pyridyl)propyl]-dimethyl-amine

>  <PUBCHEM_IUPAC_INCHI>  (1) 
InChI=1S/C16H19BrN2/c1-19(2)12-10-15(16-5-3-4-11-18-16)13-6-8-14(17)9-7-13/h3-9,11,15H,10,12H2,1-2H3

>  <PUBCHEM_IUPAC_INCHIKEY>  (1) 
ZDIGNSYAACHWNL-UHFFFAOYSA-N

>  <PUBCHEM_XLOGP3>  (1) 
3.5

>  <PUBCHEM_EXACT_MASS>  (1) 
318.07316

>  <PUBCHEM_MOLECULAR_FORMULA>  (1) 
C16H19BrN2

>  <PUBCHEM_MOLECULAR_WEIGHT>  (1) 
319.24

>  <PUBCHEM_SMILES>  (1) 
CN(C)CCC(C1=CC=C(C=C1)Br)C2=CC=CC=N2

>  <PUBCHEM_CONNECTIVITY_SMILES>  (1) 
CN(C)CCC(C1=CC=C(C=C1)Br)C2=CC=CC=N2

>  <PUBCHEM_CACTVS_TPSA>  (1) 
16.1

>  <PUBCHEM_MONOISOTOPIC_WEIGHT>  (1) 
318.07316

>  <PUBCHEM_TOTAL_CHARGE>  (1) 
0

>  <PUBCHEM_HEAVY_ATOM_COUNT>  (1) 
19

>  <PUBCHEM_ATOM_DEF_STEREO_COUNT>  (1) 
0

>  <PUBCHEM_ATOM_UDEF_STEREO_COUNT>  (1) 
1

>  <PUBCHEM_BOND_DEF_STEREO_COUNT>  (1) 
0

>  <PUBCHEM_BOND_UDEF_STEREO_COUNT>  (1) 
0

>  <PUBCHEM_ISOTOPIC_ATOM_COUNT>  (1) 
0

>  <PUBCHEM_COMPONENT_COUNT>  (1) 
1

>  <PUBCHEM_CACTVS_TAUTO_COUNT>  (1) 
-1

>  <PUBCHEM_COORDINATE_TYPE>  (1) 
1
5
255

>  <PUBCHEM_BONDANNOTATIONS>  (1) 
10  15  8
11  16  8
14  17  8
15  17  8
16  19  8
18  19  8
3  18  8
3  8  8
4  5  3
7  10  8
7  9  8
8  11  8
9  14  8

$$$$
