3219
     RDKit          2D

 48 50  0  0  1  0  0  0  0  0999 V2000
    4.6318    1.4394    0.0000 O   0  0  0  0  0  0  0  0  0  0  0  0
    6.2619   -2.0107    0.0000 N   0  0  0  0  0  0  0  0  0  0  0  0
    8.4525   -2.5107    0.0000 N   0  0  0  0  0  0  0  0  0  0  0  0
    4.6783   -1.2060    0.0000 N   0  0  0  0  0  0  0  0  0  0  0  0
    4.6783   -2.8154    0.0000 N   0  0  0  0  0  0  0  0  0  0  0  0
    6.6958   -1.1097    0.0000 C   0  0  0  0  0  0  0  0  0  0  0  0
    6.6958   -2.9117    0.0000 C   0  0  0  0  0  0  0  0  0  0  0  0
    7.6707   -0.8872    0.0000 C   0  0  0  0  0  0  0  0  0  0  0  0
    7.6707   -3.1342    0.0000 C   0  0  0  0  0  0  0  0  0  0  0  0
    8.4525   -1.5107    0.0000 C   0  0  0  0  0  0  0  0  0  0  0  0
    5.2619   -2.0107    0.0000 C   0  0  0  0  0  0  0  0  0  0  0  0
    3.7321   -1.5107    0.0000 C   0  0  0  0  0  0  0  0  0  0  0  0
    4.9889   -0.2555    0.0000 C   0  0  0  0  0  0  0  0  0  0  0  0
    3.7321   -2.5107    0.0000 C   0  0  0  0  0  0  0  0  0  0  0  0
    9.3535   -2.9446    0.0000 C   0  0  0  0  0  0  0  0  0  0  0  0
    4.3211    0.4889    0.0000 C   0  0  0  0  0  0  0  0  0  0  0  0
    2.8660   -1.0107    0.0000 C   0  0  0  0  0  0  0  0  0  0  0  0
    2.8660   -3.0107    0.0000 C   0  0  0  0  0  0  0  0  0  0  0  0
    2.0000   -1.5107    0.0000 C   0  0  0  0  0  0  0  0  0  0  0  0
    2.0000   -2.5107    0.0000 C   0  0  0  0  0  0  0  0  0  0  0  0
    3.9639    2.1837    0.0000 C   0  0  0  0  0  0  0  0  0  0  0  0
    4.2746    3.1342    0.0000 C   0  0  0  0  0  0  0  0  0  0  0  0
    6.6958   -0.4897    0.0000 H   0  0  0  0  0  0  0  0  0  0  0  0
    6.0913   -0.9718    0.0000 H   0  0  0  0  0  0  0  0  0  0  0  0
    6.0913   -3.0496    0.0000 H   0  0  0  0  0  0  0  0  0  0  0  0
    6.6958   -3.5317    0.0000 H   0  0  0  0  0  0  0  0  0  0  0  0
    8.1554   -0.5007    0.0000 H   0  0  0  0  0  0  0  0  0  0  0  0
    7.4017   -0.3286    0.0000 H   0  0  0  0  0  0  0  0  0  0  0  0
    7.4017   -3.6928    0.0000 H   0  0  0  0  0  0  0  0  0  0  0  0
    8.1554   -3.5208    0.0000 H   0  0  0  0  0  0  0  0  0  0  0  0
    9.0570   -1.6487    0.0000 H   0  0  0  0  0  0  0  0  0  0  0  0
    8.7215   -0.9521    0.0000 H   0  0  0  0  0  0  0  0  0  0  0  0
    5.5359   -0.5475    0.0000 H   0  0  0  0  0  0  0  0  0  0  0  0
    5.3715    0.2325    0.0000 H   0  0  0  0  0  0  0  0  0  0  0  0
    9.0845   -3.5032    0.0000 H   0  0  0  0  0  0  0  0  0  0  0  0
    9.9121   -3.2136    0.0000 H   0  0  0  0  0  0  0  0  0  0  0  0
    9.6225   -2.3860    0.0000 H   0  0  0  0  0  0  0  0  0  0  0  0
    3.7742    0.7809    0.0000 H   0  0  0  0  0  0  0  0  0  0  0  0
    3.9385    0.0009    0.0000 H   0  0  0  0  0  0  0  0  0  0  0  0
    2.8660   -0.3907    0.0000 H   0  0  0  0  0  0  0  0  0  0  0  0
    2.8660   -3.6307    0.0000 H   0  0  0  0  0  0  0  0  0  0  0  0
    1.4631   -1.2007    0.0000 H   0  0  0  0  0  0  0  0  0  0  0  0
    1.4631   -2.8207    0.0000 H   0  0  0  0  0  0  0  0  0  0  0  0
    3.4170    2.4757    0.0000 H   0  0  0  0  0  0  0  0  0  0  0  0
    3.5814    1.6958    0.0000 H   0  0  0  0  0  0  0  0  0  0  0  0
    4.8639    2.9416    0.0000 H   0  0  0  0  0  0  0  0  0  0  0  0
    4.4672    3.7235    0.0000 H   0  0  0  0  0  0  0  0  0  0  0  0
    3.6853    3.3268    0.0000 H   0  0  0  0  0  0  0  0  0  0  0  0
  1 16  1  0
  1 21  1  0
  2  6  1  0
  2  7  1  0
  2 11  1  0
  3  9  1  0
  3 10  1  0
  3 15  1  0
  4 11  1  0
  4 12  1  0
  4 13  1  0
  5 11  2  0
  5 14  1  0
  6  8  1  0
  6 23  1  0
  6 24  1  0
  7  9  1  0
  7 25  1  0
  7 26  1  0
  8 10  1  0
  8 27  1  0
  8 28  1  0
  9 29  1  0
  9 30  1  0
 10 31  1  0
 10 32  1  0
 12 14  1  0
 12 17  2  0
 13 16  1  0
 13 33  1  0
 13 34  1  0
 14 18  2  0
 15 35  1  0
 15 36  1  0
 15 37  1  0
 16 38  1  0
 16 39  1  0
 17 19  1  0
 17 40  1  0
 18 20  1  0
 18 41  1  0
 19 20  2  0
 19 42  1  0
 20 43  1  0
 21 22  1  0
 21 44  1  0
 21 45  1  0
 22 46  1  0
 22 47  1  0
 22 48  1  0
M  END
>  <PUBCHEM_COMPOUND_CID>  (1) 
3219

>  <PUBCHEM_COMPOUND_CANONICALIZED>  (1) 
1

>  <PUBCHEM_CACTVS_COMPLEXITY>  (1) 
341

>  <PUBCHEM_CACTVS_HBOND_ACCEPTOR>  (1) 
4

>  <PUBCHEM_CACTVS_HBOND_DONOR>  (1) 
0

>  <PUBCHEM_CACTVS_ROTATABLE_BOND>  (1) 
5

>  <PUBCHEM_CACTVS_SUBSKEYS>  (1) 
AAADceB7oAAAAAAAAAAAAAAAAAAAAWAAAAAwAAAABYAAAFgB8AAAHgAAAAAACAjhlgYz0LcMFACgASRiZACCgC0hEqAJ2CA4dJiKaKLA2ZGXIAhogALYyCcQAAAAAAAAAAAAACAAAAAAAAAAQAAAAAAAAA==

>  <PUBCHEM_IUPAC_OPENEYE_NAME>  (1) 
1-(2-ethoxyethyl)-2-(4-methyl-1,4-diazepan-1-yl)benzimidazole

>  <PUBCHEM_IUPAC_CAS_NAME>  (1) 
1-(2-ethoxyethyl)-2-(4-methyl-1,4-diazepan-1-yl)benzimidazole

>  <PUBCHEM_IUPAC_NAME_MARKUP>  (1) 
1-(2-ethoxyethyl)-2-(4-methyl-1,4-diazepan-1-yl)benzimidazole

>  <PUBCHEM_IUPAC_NAME>  (1) 
1-(2-ethoxyethyl)-2-(4-methyl-1,4-diazepan-1-yl)benzimidazole

>  <PUBCHEM_IUPAC_SYSTEMATIC_NAME>  (1) 
1-(2-ethoxyethyl)-2-(4-methyl-1,4-diazepan-1-yl)benzimidazole

>  <PUBCHEM_IUPAC_TRADITIONAL_NAME>  (1) 
1-(2-ethoxyethyl)-2-(4-methyl-1,4-diazepan-1-yl)benzimidazole

>  <PUBCHEM_IUPAC_INCHI>  (1) 
InChI=1S/C17H26N4O/c1-3-22-14-13-21-16-8-5-4-7-15(16)18-17(21)20-10-6-9-19(2)11-12-20/h4-5,7-8H,3,6,9-14H2,1-2H3

>  <PUBCHEM_IUPAC_INCHIKEY>  (1) 
KBUZBQVCBVDWKX-UHFFFAOYSA-N

>  <PUBCHEM_XLOGP3_AA>  (1) 
2.2

>  <PUBCHEM_EXACT_MASS>  (1) 
302.21066147

>  <PUBCHEM_MOLECULAR_FORMULA>  (1) 
C17H26N4O

>  <PUBCHEM_MOLECULAR_WEIGHT>  (1) 
302.4

>  <PUBCHEM_SMILES>  (1) 
CCOCCN1C2=CC=CC=C2N=C1N3CCCN(CC3)C

>  <PUBCHEM_CONNECTIVITY_SMILES>  (1) 
CCOCCN1C2=CC=CC=C2N=C1N3CCCN(CC3)C

>  <PUBCHEM_CACTVS_TPSA>  (1) 
33.5

>  <PUBCHEM_MONOISOTOPIC_WEIGHT>  (1) 
302.21066147

>  <PUBCHEM_TOTAL_CHARGE>  (1) 
0

>  <PUBCHEM_HEAVY_ATOM_COUNT>  (1) 
22

>  <PUBCHEM_ATOM_DEF_STEREO_COUNT>  (1) 
0

>  <PUBCHEM_ATOM_UDEF_STEREO_COUNT>  (1) 
0

>  <PUBCHEM_BOND_DEF_STEREO_COUNT>  (1) 
0

>  <PUBCHEM_BOND_UDEF_STEREO_COUNT>  (1) 
0

>  <PUBCHEM_ISOTOPIC_ATOM_COUNT>  (1) 
0

>  <PUBCHEM_COMPONENT_COUNT>  (1) 
1

>  <PUBCHEM_CACTVS_TAUTO_COUNT>  (1) 
-1

>  <PUBCHEM_COORDINATE_TYPE>  (1) 
1
5
255

>  <PUBCHEM_BONDANNOTATIONS>  (1) 
12  14  8
12  17  8
14  18  8
17  19  8
18  20  8
19  20  8
4  11  8
4  12  8
5  11  8
5  14  8

$$$$
