65906
     RDKit          2D

 57 61  0  0  1  0  0  0  0  0999 V2000
    2.3176    3.6653    0.0000 F   0  0  0  0  0  0  0  0  0  0  0  0
   12.2619   -2.7992    0.0000 O   0  0  0  0  0  0  0  0  0  0  0  0
    6.2619   -1.0672    0.0000 N   0  0  0  0  0  0  0  0  0  0  0  0
    9.2619   -1.0672    0.0000 N   0  0  0  0  0  0  0  0  0  0  0  0
    4.6783   -0.2625    0.0000 N   0  0  0  0  0  0  0  0  0  0  0  0
    4.6783   -1.8719    0.0000 N   0  0  0  0  0  0  0  0  0  0  0  0
   10.7619   -1.9332    0.0000 N   0  0  0  0  0  0  0  0  0  0  0  0
    9.2619   -2.7992    0.0000 N   0  0  0  0  0  0  0  0  0  0  0  0
    8.2619   -1.0672    0.0000 C   0  0  0  0  0  0  0  0  0  0  0  0
    7.7619   -0.2012    0.0000 C   0  0  0  0  0  0  0  0  0  0  0  0
    7.7619   -1.9332    0.0000 C   0  0  0  0  0  0  0  0  0  0  0  0
    6.7619   -0.2012    0.0000 C   0  0  0  0  0  0  0  0  0  0  0  0
    6.7619   -1.9332    0.0000 C   0  0  0  0  0  0  0  0  0  0  0  0
    5.2619   -1.0672    0.0000 C   0  0  0  0  0  0  0  0  0  0  0  0
    9.7619   -0.2012    0.0000 C   0  0  0  0  0  0  0  0  0  0  0  0
    9.7619   -1.9332    0.0000 C   0  0  0  0  0  0  0  0  0  0  0  0
    3.7321   -0.5672    0.0000 C   0  0  0  0  0  0  0  0  0  0  0  0
    4.9889    0.6881    0.0000 C   0  0  0  0  0  0  0  0  0  0  0  0
    3.7321   -1.5672    0.0000 C   0  0  0  0  0  0  0  0  0  0  0  0
    2.8660   -0.0672    0.0000 C   0  0  0  0  0  0  0  0  0  0  0  0
    4.3211    1.4324    0.0000 C   0  0  0  0  0  0  0  0  0  0  0  0
    2.8660   -2.0672    0.0000 C   0  0  0  0  0  0  0  0  0  0  0  0
    2.0000   -0.5672    0.0000 C   0  0  0  0  0  0  0  0  0  0  0  0
    2.0000   -1.5672    0.0000 C   0  0  0  0  0  0  0  0  0  0  0  0
   11.2619   -2.7992    0.0000 C   0  0  0  0  0  0  0  0  0  0  0  0
    4.6318    2.3829    0.0000 C   0  0  0  0  0  0  0  0  0  0  0  0
    3.3426    1.2261    0.0000 C   0  0  0  0  0  0  0  0  0  0  0  0
    9.7619   -3.6653    0.0000 C   0  0  0  0  0  0  0  0  0  0  0  0
   10.7619   -3.6653    0.0000 C   0  0  0  0  0  0  0  0  0  0  0  0
    3.9639    3.1272    0.0000 C   0  0  0  0  0  0  0  0  0  0  0  0
    2.6747    1.9705    0.0000 C   0  0  0  0  0  0  0  0  0  0  0  0
    2.9854    2.9210    0.0000 C   0  0  0  0  0  0  0  0  0  0  0  0
    8.5719   -0.5303    0.0000 H   0  0  0  0  0  0  0  0  0  0  0  0
    8.3445    0.0109    0.0000 H   0  0  0  0  0  0  0  0  0  0  0  0
    7.6542    0.4094    0.0000 H   0  0  0  0  0  0  0  0  0  0  0  0
    7.6542   -2.5438    0.0000 H   0  0  0  0  0  0  0  0  0  0  0  0
    8.3445   -2.1453    0.0000 H   0  0  0  0  0  0  0  0  0  0  0  0
    6.8695    0.4094    0.0000 H   0  0  0  0  0  0  0  0  0  0  0  0
    6.1793    0.0109    0.0000 H   0  0  0  0  0  0  0  0  0  0  0  0
    6.1793   -2.1453    0.0000 H   0  0  0  0  0  0  0  0  0  0  0  0
    6.8695   -2.5438    0.0000 H   0  0  0  0  0  0  0  0  0  0  0  0
   10.2988   -0.5112    0.0000 H   0  0  0  0  0  0  0  0  0  0  0  0
   10.0719    0.3358    0.0000 H   0  0  0  0  0  0  0  0  0  0  0  0
    9.2249    0.1088    0.0000 H   0  0  0  0  0  0  0  0  0  0  0  0
    5.5359    0.3960    0.0000 H   0  0  0  0  0  0  0  0  0  0  0  0
    5.3715    1.1760    0.0000 H   0  0  0  0  0  0  0  0  0  0  0  0
    2.8660    0.5528    0.0000 H   0  0  0  0  0  0  0  0  0  0  0  0
   11.0719   -1.3963    0.0000 H   0  0  0  0  0  0  0  0  0  0  0  0
    2.8660   -2.6872    0.0000 H   0  0  0  0  0  0  0  0  0  0  0  0
    1.4631   -0.2572    0.0000 H   0  0  0  0  0  0  0  0  0  0  0  0
    1.4631   -1.8772    0.0000 H   0  0  0  0  0  0  0  0  0  0  0  0
    5.2384    2.5107    0.0000 H   0  0  0  0  0  0  0  0  0  0  0  0
    3.1500    0.6368    0.0000 H   0  0  0  0  0  0  0  0  0  0  0  0
    9.4519   -4.2022    0.0000 H   0  0  0  0  0  0  0  0  0  0  0  0
   11.0719   -4.2022    0.0000 H   0  0  0  0  0  0  0  0  0  0  0  0
    4.1565    3.7165    0.0000 H   0  0  0  0  0  0  0  0  0  0  0  0
    2.0681    1.8426    0.0000 H   0  0  0  0  0  0  0  0  0  0  0  0
  1 32  1  0
  2 25  2  0
  3 12  1  0
  3 13  1  0
  3 14  1  0
  4  9  1  0
  4 15  1  0
  4 16  1  0
  5 14  1  0
  5 17  1  0
  5 18  1  0
  6 14  2  0
  6 19  1  0
  7 16  1  0
  7 25  1  0
  7 48  1  0
  8 16  2  0
  8 28  1  0
  9 10  1  0
  9 11  1  0
  9 33  1  0
 10 12  1  0
 10 34  1  0
 10 35  1  0
 11 13  1  0
 11 36  1  0
 11 37  1  0
 12 38  1  0
 12 39  1  0
 13 40  1  0
 13 41  1  0
 15 42  1  0
 15 43  1  0
 15 44  1  0
 17 19  1  0
 17 20  2  0
 18 21  1  0
 18 45  1  0
 18 46  1  0
 19 22  2  0
 20 23  1  0
 20 47  1  0
 21 26  1  0
 21 27  2  0
 22 24  1  0
 22 49  1  0
 23 24  2  0
 23 50  1  0
 24 51  1  0
 25 29  1  0
 26 30  2  0
 26 52  1  0
 27 31  1  0
 27 53  1  0
 28 29  2  0
 28 54  1  0
 29 55  1  0
 30 32  1  0
 30 56  1  0
 31 32  2  0
 31 57  1  0
M  END
>  <PUBCHEM_COMPOUND_CID>  (1) 
65906

>  <PUBCHEM_COMPOUND_CANONICALIZED>  (1) 
1

>  <PUBCHEM_CACTVS_COMPLEXITY>  (1) 
728

>  <PUBCHEM_CACTVS_HBOND_ACCEPTOR>  (1) 
5

>  <PUBCHEM_CACTVS_HBOND_DONOR>  (1) 
1

>  <PUBCHEM_CACTVS_ROTATABLE_BOND>  (1) 
5

>  <PUBCHEM_CACTVS_SUBSKEYS>  (1) 
AAADceB7oQAAAAAAAAAAAAAAAAAAAWAAAAA8YIEAAAAAAFgB9AAAHwAQAAAADCjBngwz0LfMEACoAyV2dACCgC0hEqAJ2CA4dNiIaKLA2ZGUIAhokQLIyOcQgAAOAAAAAAAAACAAAAAAAAAAQAAAAAAAAA==

>  <PUBCHEM_IUPAC_OPENEYE_NAME>  (1) 
2-[[1-[1-[(4-fluorophenyl)methyl]benzimidazol-2-yl]-4-piperidyl]-methyl-amino]-1H-pyrimidin-6-one

>  <PUBCHEM_IUPAC_CAS_NAME>  (1) 
2-[[1-[1-[(4-fluorophenyl)methyl]-2-benzimidazolyl]-4-piperidinyl]-methylamino]-1H-pyrimidin-6-one

>  <PUBCHEM_IUPAC_NAME_MARKUP>  (1) 
2-[[1-[1-[(4-fluorophenyl)methyl]benzimidazol-2-yl]piperidin-4-yl]-methylamino]-1<I>H</I>-pyrimidin-6-one

>  <PUBCHEM_IUPAC_NAME>  (1) 
2-[[1-[1-[(4-fluorophenyl)methyl]benzimidazol-2-yl]piperidin-4-yl]-methylamino]-1H-pyrimidin-6-one

>  <PUBCHEM_IUPAC_SYSTEMATIC_NAME>  (1) 
2-[[1-[1-[(4-fluorophenyl)methyl]benzimidazol-2-yl]piperidin-4-yl]-methyl-amino]-1H-pyrimidin-6-one

>  <PUBCHEM_IUPAC_TRADITIONAL_NAME>  (1) 
2-[[1-[1-(4-fluorobenzyl)benzimidazol-2-yl]-4-piperidyl]-methyl-amino]-1H-pyrimidin-6-one

>  <PUBCHEM_IUPAC_INCHI>  (1) 
InChI=1S/C24H25FN6O/c1-29(23-26-13-10-22(32)28-23)19-11-14-30(15-12-19)24-27-20-4-2-3-5-21(20)31(24)16-17-6-8-18(25)9-7-17/h2-10,13,19H,11-12,14-16H2,1H3,(H,26,28,32)

>  <PUBCHEM_IUPAC_INCHIKEY>  (1) 
PVLJETXTTWAYEW-UHFFFAOYSA-N

>  <PUBCHEM_XLOGP3_AA>  (1) 
3.2

>  <PUBCHEM_EXACT_MASS>  (1) 
432.20738760

>  <PUBCHEM_MOLECULAR_FORMULA>  (1) 
C24H25FN6O

>  <PUBCHEM_MOLECULAR_WEIGHT>  (1) 
432.5

>  <PUBCHEM_SMILES>  (1) 
CN(C1CCN(CC1)C2=NC3=CC=CC=C3N2CC4=CC=C(C=C4)F)C5=NC=CC(=O)N5

>  <PUBCHEM_CONNECTIVITY_SMILES>  (1) 
CN(C1CCN(CC1)C2=NC3=CC=CC=C3N2CC4=CC=C(C=C4)F)C5=NC=CC(=O)N5

>  <PUBCHEM_CACTVS_TPSA>  (1) 
65.8

>  <PUBCHEM_MONOISOTOPIC_WEIGHT>  (1) 
432.20738760

>  <PUBCHEM_TOTAL_CHARGE>  (1) 
0

>  <PUBCHEM_HEAVY_ATOM_COUNT>  (1) 
32

>  <PUBCHEM_ATOM_DEF_STEREO_COUNT>  (1) 
0

>  <PUBCHEM_ATOM_UDEF_STEREO_COUNT>  (1) 
0

>  <PUBCHEM_BOND_DEF_STEREO_COUNT>  (1) 
0

>  <PUBCHEM_BOND_UDEF_STEREO_COUNT>  (1) 
0

>  <PUBCHEM_ISOTOPIC_ATOM_COUNT>  (1) 
0

>  <PUBCHEM_COMPONENT_COUNT>  (1) 
1

>  <PUBCHEM_CACTVS_TAUTO_COUNT>  (1) 
-1

>  <PUBCHEM_COORDINATE_TYPE>  (1) 
1
5
255

>  <PUBCHEM_BONDANNOTATIONS>  (1) 
17  19  8
17  20  8
19  22  8
20  23  8
21  26  8
21  27  8
22  24  8
23  24  8
25  29  8
26  30  8
27  31  8
28  29  8
30  32  8
31  32  8
5  14  8
5  17  8
6  14  8
6  19  8
7  16  8
7  25  8
8  16  8
8  28  8

$$$$
