4615
     RDKit          2D

 62 66  0  0  0  0  0  0  0  0999 V2000
    6.2619   -2.5972    0.0000 O   0  0  0  0  0  0  0  0  0  0  0  0
    9.2136    0.9335    0.0000 N   0  0  0  0  0  0  0  0  0  0  0  0
    7.2566    0.5210    0.0000 N   0  0  0  0  0  0  0  0  0  0  0  0
    4.6783   -1.7925    0.0000 N   0  0  0  0  0  0  0  0  0  0  0  0
    4.6783   -3.4019    0.0000 N   0  0  0  0  0  0  0  0  0  0  0  0
    8.5458    1.6778    0.0000 C   0  0  0  0  0  0  0  0  0  0  0  0
    8.9030   -0.0171    0.0000 C   0  0  0  0  0  0  0  0  0  0  0  0
    7.5673    1.4715    0.0000 C   0  0  0  0  0  0  0  0  0  0  0  0
    7.9245   -0.2233    0.0000 C   0  0  0  0  0  0  0  0  0  0  0  0
   10.1921    1.1397    0.0000 C   0  0  0  0  0  0  0  0  0  0  0  0
    6.2781    0.3148    0.0000 C   0  0  0  0  0  0  0  0  0  0  0  0
    5.9674   -0.6357    0.0000 C   0  0  0  0  0  0  0  0  0  0  0  0
   10.5028    2.0902    0.0000 C   0  0  0  0  0  0  0  0  0  0  0  0
   10.8600    0.3954    0.0000 C   0  0  0  0  0  0  0  0  0  0  0  0
    4.9889   -0.8419    0.0000 C   0  0  0  0  0  0  0  0  0  0  0  0
    9.8349    2.8345    0.0000 C   0  0  0  0  0  0  0  0  0  0  0  0
   11.8385    0.6016    0.0000 C   0  0  0  0  0  0  0  0  0  0  0  0
   11.4813    2.2964    0.0000 C   0  0  0  0  0  0  0  0  0  0  0  0
   10.5493   -0.5551    0.0000 C   0  0  0  0  0  0  0  0  0  0  0  0
    3.7321   -2.0972    0.0000 C   0  0  0  0  0  0  0  0  0  0  0  0
    5.2619   -2.5972    0.0000 C   0  0  0  0  0  0  0  0  0  0  0  0
    3.7321   -3.0972    0.0000 C   0  0  0  0  0  0  0  0  0  0  0  0
   10.1456    3.7850    0.0000 C   0  0  0  0  0  0  0  0  0  0  0  0
   12.5063   -0.1427    0.0000 C   0  0  0  0  0  0  0  0  0  0  0  0
   11.7920    3.2469    0.0000 C   0  0  0  0  0  0  0  0  0  0  0  0
   11.2171   -1.2994    0.0000 C   0  0  0  0  0  0  0  0  0  0  0  0
    2.8660   -1.5972    0.0000 C   0  0  0  0  0  0  0  0  0  0  0  0
   11.1241    3.9912    0.0000 C   0  0  0  0  0  0  0  0  0  0  0  0
   12.1957   -1.0932    0.0000 C   0  0  0  0  0  0  0  0  0  0  0  0
    2.8660   -3.5972    0.0000 C   0  0  0  0  0  0  0  0  0  0  0  0
    2.0000   -2.0972    0.0000 C   0  0  0  0  0  0  0  0  0  0  0  0
    2.0000   -3.0972    0.0000 C   0  0  0  0  0  0  0  0  0  0  0  0
    9.0721    2.0054    0.0000 H   0  0  0  0  0  0  0  0  0  0  0  0
    8.3145    2.2530    0.0000 H   0  0  0  0  0  0  0  0  0  0  0  0
    8.9235   -0.6367    0.0000 H   0  0  0  0  0  0  0  0  0  0  0  0
    9.5168   -0.1044    0.0000 H   0  0  0  0  0  0  0  0  0  0  0  0
    7.5467    2.0912    0.0000 H   0  0  0  0  0  0  0  0  0  0  0  0
    6.9535    1.5589    0.0000 H   0  0  0  0  0  0  0  0  0  0  0  0
    7.3981   -0.5509    0.0000 H   0  0  0  0  0  0  0  0  0  0  0  0
    8.1557   -0.7985    0.0000 H   0  0  0  0  0  0  0  0  0  0  0  0
    9.7781    1.6012    0.0000 H   0  0  0  0  0  0  0  0  0  0  0  0
    6.2575    0.9345    0.0000 H   0  0  0  0  0  0  0  0  0  0  0  0
    5.6643    0.4022    0.0000 H   0  0  0  0  0  0  0  0  0  0  0  0
    5.9880   -1.2554    0.0000 H   0  0  0  0  0  0  0  0  0  0  0  0
    6.5813   -0.7231    0.0000 H   0  0  0  0  0  0  0  0  0  0  0  0
    4.9684   -0.2223    0.0000 H   0  0  0  0  0  0  0  0  0  0  0  0
    4.3751   -0.7546    0.0000 H   0  0  0  0  0  0  0  0  0  0  0  0
    9.2283    2.7067    0.0000 H   0  0  0  0  0  0  0  0  0  0  0  0
   12.0311    1.1909    0.0000 H   0  0  0  0  0  0  0  0  0  0  0  0
   11.8954    1.8350    0.0000 H   0  0  0  0  0  0  0  0  0  0  0  0
    9.9426   -0.6830    0.0000 H   0  0  0  0  0  0  0  0  0  0  0  0
    4.8709   -3.9912    0.0000 H   0  0  0  0  0  0  0  0  0  0  0  0
    9.7315    4.2465    0.0000 H   0  0  0  0  0  0  0  0  0  0  0  0
   13.1130   -0.0148    0.0000 H   0  0  0  0  0  0  0  0  0  0  0  0
   12.3986    3.3748    0.0000 H   0  0  0  0  0  0  0  0  0  0  0  0
   11.0245   -1.8888    0.0000 H   0  0  0  0  0  0  0  0  0  0  0  0
    2.8660   -0.9772    0.0000 H   0  0  0  0  0  0  0  0  0  0  0  0
   11.3167    4.5806    0.0000 H   0  0  0  0  0  0  0  0  0  0  0  0
   12.6097   -1.5547    0.0000 H   0  0  0  0  0  0  0  0  0  0  0  0
    2.8660   -4.2172    0.0000 H   0  0  0  0  0  0  0  0  0  0  0  0
    1.4631   -1.7872    0.0000 H   0  0  0  0  0  0  0  0  0  0  0  0
    1.4631   -3.4072    0.0000 H   0  0  0  0  0  0  0  0  0  0  0  0
  1 21  2  0
  2  6  1  0
  2  7  1  0
  2 10  1  0
  3  8  1  0
  3  9  1  0
  3 11  1  0
  4 15  1  0
  4 20  1  0
  4 21  1  0
  5 21  1  0
  5 22  1  0
  5 52  1  0
  6  8  1  0
  6 33  1  0
  6 34  1  0
  7  9  1  0
  7 35  1  0
  7 36  1  0
  8 37  1  0
  8 38  1  0
  9 39  1  0
  9 40  1  0
 10 13  1  0
 10 14  1  0
 10 41  1  0
 11 12  1  0
 11 42  1  0
 11 43  1  0
 12 15  1  0
 12 44  1  0
 12 45  1  0
 13 16  2  0
 13 18  1  0
 14 17  2  0
 14 19  1  0
 15 46  1  0
 15 47  1  0
 16 23  1  0
 16 48  1  0
 17 24  1  0
 17 49  1  0
 18 25  2  0
 18 50  1  0
 19 26  2  0
 19 51  1  0
 20 22  1  0
 20 27  2  0
 22 30  2  0
 23 28  2  0
 23 53  1  0
 24 29  2  0
 24 54  1  0
 25 28  1  0
 25 55  1  0
 26 29  1  0
 26 56  1  0
 27 31  1  0
 27 57  1  0
 28 58  1  0
 29 59  1  0
 30 32  1  0
 30 60  1  0
 31 32  2  0
 31 61  1  0
 32 62  1  0
M  END
>  <PUBCHEM_COMPOUND_CID>  (1) 
4615

>  <PUBCHEM_COMPOUND_CANONICALIZED>  (1) 
1

>  <PUBCHEM_CACTVS_COMPLEXITY>  (1) 
574

>  <PUBCHEM_CACTVS_HBOND_ACCEPTOR>  (1) 
3

>  <PUBCHEM_CACTVS_HBOND_DONOR>  (1) 
1

>  <PUBCHEM_CACTVS_ROTATABLE_BOND>  (1) 
7

>  <PUBCHEM_CACTVS_SUBSKEYS>  (1) 
AAADceB7oAAAAAAAAAAAAAAAAAAAAWAAAAA8YMEAAAAAAFgBUAAAHgAQAAAADCjBGAQxwIPAAACIAiRCUACCAAAhAgAIiAAIdIiIYCLA0ZGUIAholgLIyCcQgMAOAAAAAAAAACAAAAAAAAAAQAAAAAAAAA==

>  <PUBCHEM_IUPAC_OPENEYE_NAME>  (1) 
3-[3-(4-benzhydrylpiperazin-1-yl)propyl]-1H-benzimidazol-2-one

>  <PUBCHEM_IUPAC_CAS_NAME>  (1) 
3-[3-[4-(diphenylmethyl)-1-piperazinyl]propyl]-1H-benzimidazol-2-one

>  <PUBCHEM_IUPAC_NAME_MARKUP>  (1) 
3-[3-(4-benzhydrylpiperazin-1-yl)propyl]-1<I>H</I>-benzimidazol-2-one

>  <PUBCHEM_IUPAC_NAME>  (1) 
3-[3-(4-benzhydrylpiperazin-1-yl)propyl]-1H-benzimidazol-2-one

>  <PUBCHEM_IUPAC_SYSTEMATIC_NAME>  (1) 
3-[3-[4-(diphenylmethyl)piperazin-1-yl]propyl]-1H-benzimidazol-2-one

>  <PUBCHEM_IUPAC_TRADITIONAL_NAME>  (1) 
3-[3-(4-benzhydrylpiperazino)propyl]-1H-benzimidazol-2-one

>  <PUBCHEM_IUPAC_INCHI>  (1) 
InChI=1S/C27H30N4O/c32-27-28-24-14-7-8-15-25(24)31(27)17-9-16-29-18-20-30(21-19-29)26(22-10-3-1-4-11-22)23-12-5-2-6-13-23/h1-8,10-15,26H,9,16-21H2,(H,28,32)

>  <PUBCHEM_IUPAC_INCHIKEY>  (1) 
BAINIUMDFURPJM-UHFFFAOYSA-N

>  <PUBCHEM_XLOGP3_AA>  (1) 
4.1

>  <PUBCHEM_EXACT_MASS>  (1) 
426.24196159

>  <PUBCHEM_MOLECULAR_FORMULA>  (1) 
C27H30N4O

>  <PUBCHEM_MOLECULAR_WEIGHT>  (1) 
426.6

>  <PUBCHEM_SMILES>  (1) 
C1CN(CCN1CCCN2C3=CC=CC=C3NC2=O)C(C4=CC=CC=C4)C5=CC=CC=C5

>  <PUBCHEM_CONNECTIVITY_SMILES>  (1) 
C1CN(CCN1CCCN2C3=CC=CC=C3NC2=O)C(C4=CC=CC=C4)C5=CC=CC=C5

>  <PUBCHEM_CACTVS_TPSA>  (1) 
38.8

>  <PUBCHEM_MONOISOTOPIC_WEIGHT>  (1) 
426.24196159

>  <PUBCHEM_TOTAL_CHARGE>  (1) 
0

>  <PUBCHEM_HEAVY_ATOM_COUNT>  (1) 
32

>  <PUBCHEM_ATOM_DEF_STEREO_COUNT>  (1) 
0

>  <PUBCHEM_ATOM_UDEF_STEREO_COUNT>  (1) 
0

>  <PUBCHEM_BOND_DEF_STEREO_COUNT>  (1) 
0

>  <PUBCHEM_BOND_UDEF_STEREO_COUNT>  (1) 
0

>  <PUBCHEM_ISOTOPIC_ATOM_COUNT>  (1) 
0

>  <PUBCHEM_COMPONENT_COUNT>  (1) 
1

>  <PUBCHEM_CACTVS_TAUTO_COUNT>  (1) 
-1

>  <PUBCHEM_COORDINATE_TYPE>  (1) 
1
5
255

>  <PUBCHEM_BONDANNOTATIONS>  (1) 
13  16  8
13  18  8
14  17  8
14  19  8
16  23  8
17  24  8
18  25  8
19  26  8
20  22  8
20  27  8
22  30  8
23  28  8
24  29  8
25  28  8
26  29  8
27  31  8
30  32  8
31  32  8
4  20  8
4  21  8
5  21  8
5  22  8

$$$$
