133017
     RDKit          2D

 56 60  0  0  0  0  0  0  0  0999 V2000
    2.0000    3.7317    0.0000 Cl  0  0  0  0  0  0  0  0  0  0  0  0
    5.8374   -0.5953    0.0000 N   0  0  0  0  0  0  0  0  0  0  0  0
    7.4909    2.1184    0.0000 N   0  0  0  0  0  0  0  0  0  0  0  0
    8.4355   -2.0953    0.0000 N   0  0  0  0  0  0  0  0  0  0  0  0
    5.8374    1.4047    0.0000 C   0  0  0  0  0  0  0  0  0  0  0  0
    4.9714    0.9047    0.0000 C   0  0  0  0  0  0  0  0  0  0  0  0
    6.7034    0.9047    0.0000 C   0  0  0  0  0  0  0  0  0  0  0  0
    4.9714   -0.0953    0.0000 C   0  0  0  0  0  0  0  0  0  0  0  0
    6.7034   -0.0953    0.0000 C   0  0  0  0  0  0  0  0  0  0  0  0
    5.8374    2.4047    0.0000 C   0  0  0  0  0  0  0  0  0  0  0  0
    5.8374   -1.5953    0.0000 C   0  0  0  0  0  0  0  0  0  0  0  0
    4.9365    2.8386    0.0000 C   0  0  0  0  0  0  0  0  0  0  0  0
    6.7384    2.8386    0.0000 C   0  0  0  0  0  0  0  0  0  0  0  0
    4.7139    3.8135    0.0000 C   0  0  0  0  0  0  0  0  0  0  0  0
    5.3374    4.5953    0.0000 C   0  0  0  0  0  0  0  0  0  0  0  0
    6.3374    4.5953    0.0000 C   0  0  0  0  0  0  0  0  0  0  0  0
    6.9609    3.8135    0.0000 C   0  0  0  0  0  0  0  0  0  0  0  0
    6.7034   -2.0953    0.0000 C   0  0  0  0  0  0  0  0  0  0  0  0
    4.1839    2.1184    0.0000 C   0  0  0  0  0  0  0  0  0  0  0  0
    3.7234    4.1359    0.0000 C   0  0  0  0  0  0  0  0  0  0  0  0
    7.9514    4.1358    0.0000 C   0  0  0  0  0  0  0  0  0  0  0  0
    3.1862    2.4178    0.0000 C   0  0  0  0  0  0  0  0  0  0  0  0
    2.9544    3.4333    0.0000 C   0  0  0  0  0  0  0  0  0  0  0  0
    6.7034   -3.0953    0.0000 C   0  0  0  0  0  0  0  0  0  0  0  0
    7.5694   -1.5953    0.0000 C   0  0  0  0  0  0  0  0  0  0  0  0
    8.7204    3.4332    0.0000 C   0  0  0  0  0  0  0  0  0  0  0  0
    8.4886    2.4177    0.0000 C   0  0  0  0  0  0  0  0  0  0  0  0
    7.5694   -3.5953    0.0000 C   0  0  0  0  0  0  0  0  0  0  0  0
    8.4355   -3.0953    0.0000 C   0  0  0  0  0  0  0  0  0  0  0  0
    7.5694   -4.5953    0.0000 C   0  0  0  0  0  0  0  0  0  0  0  0
    4.7593    1.4873    0.0000 H   0  0  0  0  0  0  0  0  0  0  0  0
    4.3608    0.7970    0.0000 H   0  0  0  0  0  0  0  0  0  0  0  0
    7.3140    0.7970    0.0000 H   0  0  0  0  0  0  0  0  0  0  0  0
    6.9155    1.4873    0.0000 H   0  0  0  0  0  0  0  0  0  0  0  0
    4.3608    0.0124    0.0000 H   0  0  0  0  0  0  0  0  0  0  0  0
    4.7593   -0.6779    0.0000 H   0  0  0  0  0  0  0  0  0  0  0  0
    6.9155   -0.6779    0.0000 H   0  0  0  0  0  0  0  0  0  0  0  0
    7.3140    0.0123    0.0000 H   0  0  0  0  0  0  0  0  0  0  0  0
    5.2268   -1.4877    0.0000 H   0  0  0  0  0  0  0  0  0  0  0  0
    5.6253   -2.1779    0.0000 H   0  0  0  0  0  0  0  0  0  0  0  0
    5.4754    5.1998    0.0000 H   0  0  0  0  0  0  0  0  0  0  0  0
    4.7788    4.8643    0.0000 H   0  0  0  0  0  0  0  0  0  0  0  0
    6.8960    4.8643    0.0000 H   0  0  0  0  0  0  0  0  0  0  0  0
    6.1995    5.1998    0.0000 H   0  0  0  0  0  0  0  0  0  0  0  0
    4.3288    1.5156    0.0000 H   0  0  0  0  0  0  0  0  0  0  0  0
    3.5925    4.7419    0.0000 H   0  0  0  0  0  0  0  0  0  0  0  0
    8.0824    4.7418    0.0000 H   0  0  0  0  0  0  0  0  0  0  0  0
    2.7333    1.9943    0.0000 H   0  0  0  0  0  0  0  0  0  0  0  0
    6.1665   -3.4053    0.0000 H   0  0  0  0  0  0  0  0  0  0  0  0
    7.5695   -0.9753    0.0000 H   0  0  0  0  0  0  0  0  0  0  0  0
    9.3122    3.6183    0.0000 H   0  0  0  0  0  0  0  0  0  0  0  0
    8.9415    1.9943    0.0000 H   0  0  0  0  0  0  0  0  0  0  0  0
    8.9724   -3.4053    0.0000 H   0  0  0  0  0  0  0  0  0  0  0  0
    6.9494   -4.5953    0.0000 H   0  0  0  0  0  0  0  0  0  0  0  0
    7.5694   -5.2153    0.0000 H   0  0  0  0  0  0  0  0  0  0  0  0
    8.1894   -4.5953    0.0000 H   0  0  0  0  0  0  0  0  0  0  0  0
  1 23  1  0
  2  8  1  0
  2  9  1  0
  2 11  1  0
  3 13  1  0
  3 27  2  0
  4 25  1  0
  4 29  2  0
  5  6  1  0
  5  7  1  0
  5 10  2  0
  6  8  1  0
  6 31  1  0
  6 32  1  0
  7  9  1  0
  7 33  1  0
  7 34  1  0
  8 35  1  0
  8 36  1  0
  9 37  1  0
  9 38  1  0
 10 12  1  0
 10 13  1  0
 11 18  1  0
 11 39  1  0
 11 40  1  0
 12 14  2  0
 12 19  1  0
 13 17  2  0
 14 15  1  0
 14 20  1  0
 15 16  1  0
 15 41  1  0
 15 42  1  0
 16 17  1  0
 16 43  1  0
 16 44  1  0
 17 21  1  0
 18 24  1  0
 18 25  2  0
 19 22  2  0
 19 45  1  0
 20 23  2  0
 20 46  1  0
 21 26  2  0
 21 47  1  0
 22 23  1  0
 22 48  1  0
 24 28  2  0
 24 49  1  0
 25 50  1  0
 26 27  1  0
 26 51  1  0
 27 52  1  0
 28 29  1  0
 28 30  1  0
 29 53  1  0
 30 54  1  0
 30 55  1  0
 30 56  1  0
M  END
>  <PUBCHEM_COMPOUND_CID>  (1) 
133017

>  <PUBCHEM_COMPOUND_CANONICALIZED>  (1) 
1

>  <PUBCHEM_CACTVS_COMPLEXITY>  (1) 
609

>  <PUBCHEM_CACTVS_HBOND_ACCEPTOR>  (1) 
3

>  <PUBCHEM_CACTVS_HBOND_DONOR>  (1) 
0

>  <PUBCHEM_CACTVS_ROTATABLE_BOND>  (1) 
2

>  <PUBCHEM_CACTVS_SUBSKEYS>  (1) 
AAADceB7AAAEAAAAAAAAAAAAAAAAAAAAAAA8WLEABgAAAAAB8AAAHAIAAAAADArBHiQ+gJMIEACgAzRnRACCgCAxByAI2CA4ZpgIIOLB05GEIAhggADIyAcQgMAOhAAAIAAQAAAIAABAACAAAAAAAAAAAA==

>  <PUBCHEM_IUPAC_OPENEYE_NAME>  (1) 
13-chloro-2-[1-[(5-methyl-3-pyridyl)methyl]-4-piperidylidene]-4-azatricyclo[9.4.0.03,8]pentadeca-1(11),3(8),4,6,12,14-hexaene

>  <PUBCHEM_IUPAC_CAS_NAME>  (1) 
13-chloro-2-[1-[(5-methyl-3-pyridinyl)methyl]-4-piperidinylidene]-4-azatricyclo[9.4.0.03,8]pentadeca-1(11),3(8),4,6,12,14-hexaene

>  <PUBCHEM_IUPAC_NAME_MARKUP>  (1) 
13-chloro-2-[1-[(5-methyl-3-pyridinyl)methyl]piperidin-4-ylidene]-4-azatricyclo[9.4.0.0<SUP>3,8</SUP>]pentadeca-1(11),3(8),4,6,12,14-hexaene

>  <PUBCHEM_IUPAC_NAME>  (1) 
13-chloro-2-[1-[(5-methyl-3-pyridinyl)methyl]piperidin-4-ylidene]-4-azatricyclo[9.4.0.03,8]pentadeca-1(11),3(8),4,6,12,14-hexaene

>  <PUBCHEM_IUPAC_SYSTEMATIC_NAME>  (1) 
13-chloranyl-2-[1-[(5-methyl-3-pyridinyl)methyl]piperidin-4-ylidene]-4-azatricyclo[9.4.0.03,8]pentadeca-1(11),3(8),4,6,12,14-hexaene

>  <PUBCHEM_IUPAC_TRADITIONAL_NAME>  (1) 
13-chloro-2-[1-[(5-methyl-3-pyridyl)methyl]-4-piperidylidene]-4-azatricyclo[9.4.0.03,8]pentadeca-1(11),3(8),4,6,12,14-hexaene

>  <PUBCHEM_IUPAC_INCHI>  (1) 
InChI=1S/C26H26ClN3/c1-18-13-19(16-28-15-18)17-30-11-8-20(9-12-30)25-24-7-6-23(27)14-22(24)5-4-21-3-2-10-29-26(21)25/h2-3,6-7,10,13-16H,4-5,8-9,11-12,17H2,1H3

>  <PUBCHEM_IUPAC_INCHIKEY>  (1) 
WUZYKBABMWJHDL-UHFFFAOYSA-N

>  <PUBCHEM_XLOGP3>  (1) 
5.8

>  <PUBCHEM_EXACT_MASS>  (1) 
415.1815255

>  <PUBCHEM_MOLECULAR_FORMULA>  (1) 
C26H26ClN3

>  <PUBCHEM_MOLECULAR_WEIGHT>  (1) 
416.0

>  <PUBCHEM_SMILES>  (1) 
CC1=CC(=CN=C1)CN2CCC(=C3C4=C(CCC5=C3N=CC=C5)C=C(C=C4)Cl)CC2

>  <PUBCHEM_CONNECTIVITY_SMILES>  (1) 
CC1=CC(=CN=C1)CN2CCC(=C3C4=C(CCC5=C3N=CC=C5)C=C(C=C4)Cl)CC2

>  <PUBCHEM_CACTVS_TPSA>  (1) 
29

>  <PUBCHEM_MONOISOTOPIC_WEIGHT>  (1) 
415.1815255

>  <PUBCHEM_TOTAL_CHARGE>  (1) 
0

>  <PUBCHEM_HEAVY_ATOM_COUNT>  (1) 
30

>  <PUBCHEM_ATOM_DEF_STEREO_COUNT>  (1) 
0

>  <PUBCHEM_ATOM_UDEF_STEREO_COUNT>  (1) 
0

>  <PUBCHEM_BOND_DEF_STEREO_COUNT>  (1) 
0

>  <PUBCHEM_BOND_UDEF_STEREO_COUNT>  (1) 
0

>  <PUBCHEM_ISOTOPIC_ATOM_COUNT>  (1) 
0

>  <PUBCHEM_COMPONENT_COUNT>  (1) 
1

>  <PUBCHEM_CACTVS_TAUTO_COUNT>  (1) 
-1

>  <PUBCHEM_COORDINATE_TYPE>  (1) 
1
5
255

>  <PUBCHEM_BONDANNOTATIONS>  (1) 
12  14  8
12  19  8
13  17  8
14  20  8
17  21  8
18  24  8
18  25  8
19  22  8
20  23  8
21  26  8
22  23  8
24  28  8
26  27  8
28  29  8
3  13  8
3  27  8
4  25  8
4  29  8

$$$$
