5282443
     RDKit          2D

 43 45  0  0  0  0  0  0  0  0999 V2000
    3.5827    1.5000    0.0000 N   0  0  0  0  0  0  0  0  0  0  0  0
    7.0468    2.5000    0.0000 N   0  0  0  0  0  0  0  0  0  0  0  0
    3.4782    2.4945    0.0000 C   0  0  0  0  0  0  0  0  0  0  0  0
    2.6691    1.0933    0.0000 C   0  0  0  0  0  0  0  0  0  0  0  0
    2.5000    2.7024    0.0000 C   0  0  0  0  0  0  0  0  0  0  0  0
    2.0000    1.8364    0.0000 C   0  0  0  0  0  0  0  0  0  0  0  0
    4.4487    1.0000    0.0000 C   0  0  0  0  0  0  0  0  0  0  0  0
    5.3147    1.5000    0.0000 C   0  0  0  0  0  0  0  0  0  0  0  0
    6.1808    1.0000    0.0000 C   0  0  0  0  0  0  0  0  0  0  0  0
    6.1808   -0.0000    0.0000 C   0  0  0  0  0  0  0  0  0  0  0  0
    7.0468    1.5000    0.0000 C   0  0  0  0  0  0  0  0  0  0  0  0
    5.3147   -0.5000    0.0000 C   0  0  0  0  0  0  0  0  0  0  0  0
    7.0468   -0.5000    0.0000 C   0  0  0  0  0  0  0  0  0  0  0  0
    7.9128    1.0000    0.0000 C   0  0  0  0  0  0  0  0  0  0  0  0
    6.1808   -2.0000    0.0000 C   0  0  0  0  0  0  0  0  0  0  0  0
    5.3147   -1.5000    0.0000 C   0  0  0  0  0  0  0  0  0  0  0  0
    7.0468   -1.5000    0.0000 C   0  0  0  0  0  0  0  0  0  0  0  0
    8.7788    1.5000    0.0000 C   0  0  0  0  0  0  0  0  0  0  0  0
    6.1808   -3.0000    0.0000 C   0  0  0  0  0  0  0  0  0  0  0  0
    7.9128    3.0000    0.0000 C   0  0  0  0  0  0  0  0  0  0  0  0
    8.7788    2.5000    0.0000 C   0  0  0  0  0  0  0  0  0  0  0  0
    4.0982    2.4945    0.0000 H   0  0  0  0  0  0  0  0  0  0  0  0
    3.5430    3.1111    0.0000 H   0  0  0  0  0  0  0  0  0  0  0  0
    2.1675    0.7288    0.0000 H   0  0  0  0  0  0  0  0  0  0  0  0
    2.9791    0.5563    0.0000 H   0  0  0  0  0  0  0  0  0  0  0  0
    2.6916    3.2921    0.0000 H   0  0  0  0  0  0  0  0  0  0  0  0
    1.9336    2.9546    0.0000 H   0  0  0  0  0  0  0  0  0  0  0  0
    1.4984    2.2008    0.0000 H   0  0  0  0  0  0  0  0  0  0  0  0
    1.5851    1.3757    0.0000 H   0  0  0  0  0  0  0  0  0  0  0  0
    4.0502    0.5251    0.0000 H   0  0  0  0  0  0  0  0  0  0  0  0
    4.8472    0.5251    0.0000 H   0  0  0  0  0  0  0  0  0  0  0  0
    5.3147    2.1200    0.0000 H   0  0  0  0  0  0  0  0  0  0  0  0
    4.7778   -0.1900    0.0000 H   0  0  0  0  0  0  0  0  0  0  0  0
    7.5837   -0.1900    0.0000 H   0  0  0  0  0  0  0  0  0  0  0  0
    7.9128    0.3800    0.0000 H   0  0  0  0  0  0  0  0  0  0  0  0
    4.7778   -1.8100    0.0000 H   0  0  0  0  0  0  0  0  0  0  0  0
    7.5837   -1.8100    0.0000 H   0  0  0  0  0  0  0  0  0  0  0  0
    9.3158    1.1900    0.0000 H   0  0  0  0  0  0  0  0  0  0  0  0
    5.5608   -3.0000    0.0000 H   0  0  0  0  0  0  0  0  0  0  0  0
    6.1808   -3.6200    0.0000 H   0  0  0  0  0  0  0  0  0  0  0  0
    6.8008   -3.0000    0.0000 H   0  0  0  0  0  0  0  0  0  0  0  0
    7.9128    3.6200    0.0000 H   0  0  0  0  0  0  0  0  0  0  0  0
    9.3158    2.8100    0.0000 H   0  0  0  0  0  0  0  0  0  0  0  0
  1  3  1  0
  1  4  1  0
  1  7  1  0
  2 11  1  0
  2 20  2  0
  3  5  1  0
  3 22  1  0
  3 23  1  0
  4  6  1  0
  4 24  1  0
  4 25  1  0
  5  6  1  0
  5 26  1  0
  5 27  1  0
  6 28  1  0
  6 29  1  0
  7  8  1  0
  7 30  1  0
  7 31  1  0
  8  9  2  0
  8 32  1  0
  9 10  1  0
  9 11  1  0
 10 12  1  0
 10 13  2  0
 11 14  2  0
 12 16  2  0
 12 33  1  0
 13 17  1  0
 13 34  1  0
 14 18  1  0
 14 35  1  0
 15 16  1  0
 15 17  2  0
 15 19  1  0
 16 36  1  0
 17 37  1  0
 18 21  2  0
 18 38  1  0
 19 39  1  0
 19 40  1  0
 19 41  1  0
 20 21  1  0
 20 42  1  0
 21 43  1  0
M  END
>  <PUBCHEM_COMPOUND_CID>  (1) 
5282443

>  <PUBCHEM_COMPOUND_CANONICALIZED>  (1) 
1

>  <PUBCHEM_CACTVS_COMPLEXITY>  (1) 
335

>  <PUBCHEM_CACTVS_HBOND_ACCEPTOR>  (1) 
2

>  <PUBCHEM_CACTVS_HBOND_DONOR>  (1) 
0

>  <PUBCHEM_CACTVS_ROTATABLE_BOND>  (1) 
4

>  <PUBCHEM_CACTVS_SUBSKEYS>  (1) 
AAADceB7AAAAAAAAAAAAAAAAAAAAAWAAAAA8QAAAAAAAAAABwAAAHAAAAAAADAjBHgQ+gJMIEACgAzRnRACCgCAxAiAI2CA4ZJgIIOLAkZGEIAhggADIyAcQgMAOQAAAAAAAAACAAAAAAAAAAAAAAAAAAA==

>  <PUBCHEM_IUPAC_OPENEYE_NAME>  (1) 
2-[(E)-1-(p-tolyl)-3-pyrrolidin-1-yl-prop-1-enyl]pyridine

>  <PUBCHEM_IUPAC_CAS_NAME>  (1) 
2-[(E)-1-(4-methylphenyl)-3-(1-pyrrolidinyl)prop-1-enyl]pyridine

>  <PUBCHEM_IUPAC_NAME_MARKUP>  (1) 
2-[(<I>E</I>)-1-(4-methylphenyl)-3-pyrrolidin-1-ylprop-1-enyl]pyridine

>  <PUBCHEM_IUPAC_NAME>  (1) 
2-[(E)-1-(4-methylphenyl)-3-pyrrolidin-1-ylprop-1-enyl]pyridine

>  <PUBCHEM_IUPAC_SYSTEMATIC_NAME>  (1) 
2-[(E)-1-(4-methylphenyl)-3-pyrrolidin-1-yl-prop-1-enyl]pyridine

>  <PUBCHEM_IUPAC_TRADITIONAL_NAME>  (1) 
2-[(E)-1-(p-tolyl)-3-pyrrolidino-prop-1-enyl]pyridine

>  <PUBCHEM_IUPAC_INCHI>  (1) 
InChI=1S/C19H22N2/c1-16-7-9-17(10-8-16)18(19-6-2-3-12-20-19)11-15-21-13-4-5-14-21/h2-3,6-12H,4-5,13-15H2,1H3/b18-11+

>  <PUBCHEM_IUPAC_INCHIKEY>  (1) 
CBEQULMOCCWAQT-WOJGMQOQSA-N

>  <PUBCHEM_XLOGP3>  (1) 
3.9

>  <PUBCHEM_EXACT_MASS>  (1) 
278.178298710

>  <PUBCHEM_MOLECULAR_FORMULA>  (1) 
C19H22N2

>  <PUBCHEM_MOLECULAR_WEIGHT>  (1) 
278.4

>  <PUBCHEM_SMILES>  (1) 
CC1=CC=C(C=C1)/C(=C\CN2CCCC2)/C3=CC=CC=N3

>  <PUBCHEM_CONNECTIVITY_SMILES>  (1) 
CC1=CC=C(C=C1)C(=CCN2CCCC2)C3=CC=CC=N3

>  <PUBCHEM_CACTVS_TPSA>  (1) 
16.1

>  <PUBCHEM_MONOISOTOPIC_WEIGHT>  (1) 
278.178298710

>  <PUBCHEM_TOTAL_CHARGE>  (1) 
0

>  <PUBCHEM_HEAVY_ATOM_COUNT>  (1) 
21

>  <PUBCHEM_ATOM_DEF_STEREO_COUNT>  (1) 
0

>  <PUBCHEM_ATOM_UDEF_STEREO_COUNT>  (1) 
0

>  <PUBCHEM_BOND_DEF_STEREO_COUNT>  (1) 
1

>  <PUBCHEM_BOND_UDEF_STEREO_COUNT>  (1) 
0

>  <PUBCHEM_ISOTOPIC_ATOM_COUNT>  (1) 
0

>  <PUBCHEM_COMPONENT_COUNT>  (1) 
1

>  <PUBCHEM_CACTVS_TAUTO_COUNT>  (1) 
-1

>  <PUBCHEM_COORDINATE_TYPE>  (1) 
1
5
255

>  <PUBCHEM_BONDANNOTATIONS>  (1) 
10  12  8
10  13  8
11  14  8
12  16  8
13  17  8
14  18  8
15  16  8
15  17  8
18  21  8
2  11  8
2  20  8
20  21  8

$$$$
